/*--------------------------------*- C++ -*----------------------------------*\
| =========                 |                                                 |
| \\      /  F ield         | OpenFOAM: The Open Source CFD Toolbox           |
|  \\    /   O peration     | Version:  2112                                  |
|   \\  /    A nd           | Website:  www.openfoam.com                      |
|    \\/     M anipulation  |                                                 |
\*---------------------------------------------------------------------------*/
FoamFile
{
    version     2.0;
    format      ascii;
    arch        "LSB;label=64;scalar=64";
    class       triSurfacePointScalarField;
    location    "constant/triSurface";
    object      PorousMedia.curvature;
}
// * * * * * * * * * * * * * * * * * * * * * * * * * * * * * * * * * * * * * //

dimensions      [0 1 0 0 0 0 0];

value           nonuniform List<scalar> 
9802
(
33322.866
33333.25
33329.762
33322.016
33330.909
33317.303
33333.449
33298.893
33332.665
33297.573
33324.597
33306.53
33323.115
33310.893
33321.931
33331.493
33328.86
33328.458
33328.605
33328.593
33322.215
33316.268
33321.263
33315.694
33303.598
33300.141
33303.719
33300.613
33322.307
33320.332
33322.739
33321.327
33328.504
33328.603
33328.114
33327.538
33324.254
33321.959
33315.307
33311.481
33304.993
33301.659
33306.78
33304.326
33317.524
33315.729
33325.529
33325.223
33324.788
33330.548
33328.257
33328.463
33328.468
33328.057
33328.285
33328.603
33327.996
33327.684
33329.272
33321.338
33329.57
33317.117
33324.333
33323.717
33316.107
33315.236
33322.815
33322.272
33313.365
33312.648
33329.208
33301.008
33326.884
33298.745
33309.217
33307.425
33299.97
33299.563
33309.021
33307.375
33300.61
33300.36
33320.863
33304.606
33320.826
33311.089
33321.955
33321.996
33319.227
33318.765
33323.298
33323.468
33321.627
33321.362
33323.678
33327.968
33327.99
33328.013
33327.28
33326.506
33325.526
33323.582
33312.536
33308.696
33307.585
33303.418
33309.565
33306.942
33314.94
33312.748
33326.453
33326.453
33325.571
33328.261
33328.709
33321.718
33328.437
33320.585
33323.54
33301.593
33322.352
33300.731
33317.774
33306.387
33318.428
33308.546
33325.304
33327.391
33324.069
33331.79
33327.588
33328.278
33327.949
33328.045
33328.199
33328.015
33328.181
33327.425
33328.134
33327.031
33328.286
33326.021
33328.879
33322.455
33330.678
33314.893
33326.763
33318.942
33325.907
33316.308
33326.48
33315.023
33323.999
33310.947
33322.549
33310.309
33321.092
33307.632
33331.438
33300.617
33329.661
33297.594
33313.698
33299.97
33312.026
33299.281
33313.425
33299.268
33312.403
33300.907
33310.977
33301.153
33312.286
33302.965
33323.246
33304.078
33321.368
33312.308
33319.291
33313.926
33320.872
33316.68
33321.65
33317.653
33323.627
33322.432
33323.917
33322.854
33325.065
33324.793
33322.453
33328.87
33372.865
33373.738
33361.969
33362.91
33357.614
33357.487
33365.51
33364.408
33369.598
33368.437
33373.823
33373.071
33373.54
33373.054
33372.985
33373.48
33372.175
33373.154
33369.754
33370.754
33369.048
33370.133
33364.96
33365.964
33358.436
33357.954
33360.583
33359.762
33361.099
33360.231
33363.909
33362.862
33370.913
33369.789
33372.506
33371.435
33372.723
33371.747
33373.665
33372.797
33373.278
33372.938
33372.847
33372.713
33372.759
33372.766
33372.858
33373.14
33372.702
33373.674
33363.047
33363.96
33357.91
33357.641
33365.081
33363.984
33370.122
33369.003
33373.869
33373.024
33373.463
33373.081
33373.005
33373.377
33373.244
33374.055
33360.231
33361.052
33357.927
33358.149
33366.862
33365.733
33368.911
33367.749
33374.018
33373.329
33373.846
33373.291
33373.254
33373.872
33373.234
33373.954
33370.997
33372.029
33367.676
33368.718
33358.615
33359.207
33359.85
33359.14
33362.41
33361.458
33367.801
33366.651
33372.092
33371.013
33373.332
33372.373
33373.893
33373.268
33373.068
33372.872
33372.852
33372.942
33372.578
33373.55
33364.109
33365.082
33358.354
33357.951
33364.689
33363.63
33370.706
33369.57
33373.9
33373.054
33373.47
33373.099
33373.023
33373.366
33371.866
33372.892
33371.501
33372.522
33366.863
33367.898
33365.953
33366.95
33358.954
33358.382
33359.459
33358.798
33363.002
33362.029
33363.485
33362.463
33371.382
33370.289
33371.808
33370.706
33373.532
33372.605
33373.635
33372.712
33373.22
33372.95
33373.175
33372.93
33372.884
33373.039
33372.884
33373.079
33370.508
33371.516
33368.474
33369.56
33360.411
33359.646
33361.957
33361.041
33372.466
33371.379
33373.176
33372.22
33373.044
33372.865
33372.876
33372.942
33373.14
33373.972
33361.123
33362.028
33357.789
33357.823
33366.283
33365.167
33369.351
33368.184
33373.985
33373.278
33373.755
33373.22
33373.17
33373.745
33373.244
33374.025
33359.355
33360.068
33358.153
33358.579
33367.332
33366.188
33368.355
33367.202
33373.965
33373.294
33373.865
33373.288
33373.257
33373.914
33347.159
33360.911
33345.333
33356.272
33350.131
33347.452
33355.87
33344.987
33360.498
33346.518
33360.499
33349.032
33356.393
33353.29
33352.172
33357.854
33324.188
33331.403
33328.887
33321.876
33330.925
33315.564
33331.031
33300.477
33330.105
33297.545
33322.885
33305.44
33321.421
33310.925
33322.543
33329.866
33324.489
33328.995
33323.338
33327.424
33328.104
33334.798
33326.377
33328.808
33323.877
33325.656
33328.356
33328.796
33329.498
33335.864
33323.771
33325.944
33329.174
33339.092
33327.667
33328.513
33327.712
33326.611
33328.182
33350.151
33325.802
33327.127
33327.723
33332.335
33326.586
33327.679
33326.535
33330.85
33333.018
33327.557
33325.734
33347.661
33328.52
33326.413
33329.063
33328.224
33324.214
33334.343
33328.932
33328.187
33328.598
33327.099
33323.791
33329.206
33328.454
33323.998
33329.609
33328.135
33325.344
33325.565
33329.192
33319.698
33332.112
33327.327
33320.419
33316.053
33328.956
33317.022
33333.602
33329.767
33325.59
33320.872
33314.754
33314.654
33336.175
33328.808
33314.583
33318.142
33327.275
33316.461
33344.606
33329.36
33312.615
33333.792
33333.314
33328.173
33311.722
33307.561
33333.446
33327.708
33308.92
33305.185
33347.679
33327.856
33306.646
33329.053
33324.445
33308.422
33338.766
33328.054
33304.667
33306.135
33335.88
33328.485
33318.519
33309.615
33303.621
33301.661
33326.01
33304.192
33334.887
33319.898
33306.09
33300.001
33326.852
33299.914
33333.441
33314.967
33300.66
33297.627
33321.984
33298.908
33334.409
33324.77
33308.795
33301.159
33298.005
33297.837
33338.177
33322.564
33298.323
33300.688
33315.811
33299.44
33350.021
33322.139
33297.994
33324.862
33329.978
33319.468
33298.75
33298.059
33328.665
33318.568
33299.527
33299.701
33348.424
33319.67
33300.53
33326.779
33314.081
33301.669
33333.49
33319.344
33301.297
33306.628
33328.963
33320.395
33309.177
33303.788
33302.352
33304.337
33318.078
33303.311
33326.731
33313.396
33304.632
33305.222
33319.995
33307.524
33323.182
33318.246
33311.898
33314.025
33320.164
33312.545
33323.105
33320.47
33318.779
33314.984
33313.657
33317.015
33325.167
33320.721
33314.804
33321.112
33320.92
33315.946
33339.317
33321.011
33316.434
33338.344
33321.161
33321.773
33318.655
33321.066
33321.038
33322.66
33321.344
33324.529
33334.414
33322.833
33323.541
33343.858
33324.246
33323.756
33320.862
33323.16
33324.517
33333.21
33321.035
33323.139
33325.623
33325.163
33326.069
33330.869
33324.263
33326.082
33321.567
33325.581
33326.002
33331.181
33329.03
33329.19
33329.05
33328.853
33320.376
33319.929
33318.258
33317.443
33300.508
33300.645
33301.53
33301.274
33320.924
33320.848
33323.098
33322.786
33328.85
33329.074
33328.796
33328.366
33322.006
33320.752
33317.348
33314.776
33301.44
33300.914
33303.371
33302.426
33319.751
33318.896
33324.275
33323.824
33369.209
33372.987
33360.907
33364.671
33357.344
33357.636
33364.427
33360.58
33369.876
33365.361
33373.058
33369.778
33372.02
33370.329
33370.236
33372.147
33369.721
33373.087
33358.944
33362.004
33357.4
33359.017
33366.17
33361.987
33368.385
33363.933
33372.897
33370.023
33372.439
33370.224
33370.08
33372.662
33327.111
33327.556
33327.573
33324.427
33327.239
33323.267
33315.586
33304.601
33314.139
33303.099
33313.772
33307.52
33315.301
33309.376
33326.616
33327.035
33347.413
33360.817
33345.206
33355.545
33349.599
33347.705
33356.119
33344.922
33360.274
33346.123
33360.162
33349.223
33356.692
33352.763
33351.661
33358.212
33369.664
33373.206
33359.661
33362.973
33357.402
33358.583
33365.731
33361.636
33369.024
33364.548
33373.071
33370.042
33372.382
33370.353
33370.228
33372.589
33368.899
33372.824
33361.608
33365.498
33357.452
33357.339
33363.8
33360.068
33370.259
33365.779
33373.043
33369.597
33371.811
33370.347
33370.271
33371.9
33326.022
33349.695
33325.673
33329.052
33347.862
33361.057
33367.837
33372.044
33363.803
33367.974
33345.61
33354.941
33328.642
33322.516
33338.019
33342.635
33340.281
33339.504
33329.576
33317.959
33349.098
33348.445
33358.396
33357.1
33362.027
33358.81
33356.836
33344.979
33326.512
33302.374
33349.62
33325.675
33349.968
33324.899
33324.693
33299.062
33360.145
33346.162
33371.394
33367.023
33372.903
33369.071
33360.15
33349.587
33319.199
33305.072
33345.527
33330.164
33343.487
33332.94
33319.801
33310.441
33357.184
33352.594
33371.318
33370.513
33370.485
33371.325
33351.425
33358.72
33324.276
33327.76
33329
33348.021
33369.517
33373.195
33360.342
33363.885
33357.399
33358.156
33365.19
33361.178
33369.534
33365.056
33373.146
33369.984
33372.263
33370.402
33370.293
33372.436
33325.367
33350.055
33368.733
33372.787
33362.506
33366.508
33337.412
33343.694
33341.269
33338.778
33357.901
33357.375
33363.421
33359.828
33349.531
33326.297
33350.316
33324.879
33370.852
33366.405
33373.19
33369.6
33346.13
33329.814
33343.072
33333.781
33371.775
33370.537
33370.473
33371.846
33329.898
33347.786
33369.955
33373.13
33358.542
33361.297
33357.768
33359.787
33366.897
33362.607
33367.988
33363.595
33372.893
33370.202
33372.687
33370.273
33370.1
33372.931
33370.183
33373.208
33325.674
33327.249
33328.334
33329.09
33357.183
33366.157
33324.665
33327.497
33328.412
33328.907
33328.212
33333.546
33346.658
33360.559
33367.433
33346.375
33360.388
33371.694
33329.369
33349.904
33366.428
33345.835
33330.089
33349.408
33359.548
33370.737
33365.854
33345.592
33330.774
33349.093
33359.16
33370.144
33331.692
33348.795
33364.538
33345.477
33358.205
33368.768
33345.302
33357.64
33328.184
33328.218
33328.685
33327.398
33326.101
33327.618
33352.119
33360.037
33328.349
33328.369
33325.324
33323.263
33358.308
33360.694
33329.145
33327.355
33319.247
33316.191
33352.821
33352.337
33332.628
33326.876
33324.512
33320.639
33317.542
33311.651
33351.314
33346.66
33358.872
33351.816
33346.445
33357.249
33345.727
33332.483
33359.892
33352.825
33346.101
33331.579
33345.745
33357.606
33360.394
33353.29
33346.48
33330.946
33345.59
33357.889
33347.095
33330.407
33361.52
33354.507
33345.33
33358.486
33354.88
33345.24
33333.71
33322.617
33318.267
33310.905
33307.906
33302.249
33359.62
33351.683
33327.181
33321.832
33306.238
33303.274
33367.666
33363.317
33323.547
33315.864
33300.105
33298.424
33364.727
33355.028
33331.43
33314.706
33306.367
33301.007
33299.444
33297.351
33360.871
33346.94
33371.758
33360.944
33347.258
33367.447
33349.843
33325.393
33372.324
33360.963
33349.518
33325.438
33347.573
33368.128
33372.536
33360.913
33349.252
33325.756
33347.853
33368.423
33349.173
33326.187
33372.839
33360.947
33348.391
33368.898
33360.767
33348.642
33326.842
33313.025
33307.449
33303.075
33302.163
33302.483
33366.045
33358.368
33319.091
33313.795
33303.583
33302.934
33372.944
33370.393
33320.074
33319.08
33312.825
33312.461
33363.642
33360.639
33321.759
33320.087
33319.083
33316.244
33314.706
33316.649
33355.724
33354.061
33371.206
33355.341
33354.54
33370.623
33338.08
33340.129
33370.954
33354.501
33337.267
33340.74
33355.247
33370.838
33370.846
33354.09
33336.545
33341.577
33355.714
33370.944
33335.953
33342.481
33370.608
33353.403
33356.647
33371.201
33352.957
33357.091
33321.425
33324.521
33325.341
33324.491
33324.183
33328.336
33360.21
33364.251
33323.676
33325.136
33325.401
33326.142
33368.365
33372.498
33366.943
33371.243
33365.21
33369.472
33363.21
33367.317
33358.186
33357.25
33359.343
33357.384
33360.932
33358.148
33362.775
33359.375
33371.203
33366.778
33372.043
33367.791
33372.697
33368.658
33373.114
33369.408
33371.598
33370.568
33371.066
33370.72
33370.718
33371.054
33370.519
33371.637
33358.354
33366.14
33348.332
33361.097
33345.893
33354.376
33351.341
33357.042
33351.664
33354.281
33348.751
33349.06
33357.356
33345.146
33361.593
33352.67
33363.378
33353.787
33360.056
33346.056
33359.986
33349.988
33365.494
33359.154
33364.666
33359.864
33357.669
33352.31
33351.096
33359.244
33359.304
33365.427
33323.81
33330.605
33329.033
33320.067
33329.634
33316.867
33329.872
33299.671
33328.677
33298.121
33321.712
33305.439
33321.079
33309.654
33323.057
33329.026
33327.431
33327.578
33358.115
33366.309
33326.467
33328.605
33326.225
33350.419
33347.026
33328.653
33328.78
33360.942
33333.085
33353.881
33328.706
33328.853
33346.124
33360.043
33355.005
33364.541
33354.56
33364.067
33345.567
33358.741
33328.751
33328.263
33336.378
33351.205
33345.499
33328.543
33327.901
33357.104
33334.563
33346.493
33328.533
33323.875
33351.528
33357.826
33326.975
33325.117
33351.936
33353.793
33328.799
33318.437
33343.587
33335.457
33350.847
33323.689
33320.187
33347.241
33346.965
33338.94
33322.518
33318.756
33352.371
33346.146
33355.921
33351.235
33356.444
33351.232
33353.993
33345.486
33319.51
33314.353
33350.427
33335.339
33355.607
33317.921
33312.597
33345.233
33348.449
33327.993
33324.597
33304.025
33361.198
33352.45
33311.363
33305.589
33363.8
33354.181
33321.208
33299.534
33350.235
33324.756
33360.832
33304.353
33300.645
33346.912
33353.938
33333.338
33302.737
33300.33
33361.003
33347.462
33366.123
33356.849
33366.201
33357.126
33360.986
33348.154
33303.755
33301.364
33353.004
33334.924
33360.807
33305.638
33302.604
33348.963
33347.812
33327.661
33317.197
33304.224
33365.751
33359
33312.923
33309.589
33364.449
33360.135
33319.483
33311.569
33340.614
33336.834
33356.178
33319.464
33317.276
33353.824
33345.356
33344.021
33320.829
33319.06
33354.943
33354.924
33362.078
33362.19
33361.792
33362.492
33353.759
33356.209
33323.763
33322.802
33341.274
33348.47
33352.678
33324.745
33324.085
33357.605
33332.995
33345.299
33324.79
33326.539
33359.615
33365.195
33358.786
33366.242
33351.606
33356.535
33351.751
33355.168
33362.353
33353.189
33363.219
33353.766
33365.504
33359.531
33365.08
33359.886
33359.256
33365.87
33349.272
33360.629
33346.589
33352.182
33347.409
33350.786
33358.415
33345.302
33359.153
33345.489
33359.166
33350.728
33358.572
33351.3
33349.981
33360.165
33323.653
33332.727
33324.892
33350.326
33355.856
33365.368
33355.477
33365.036
33354.191
33363.58
33353.724
33362.956
33335.817
33345.192
33329.602
33322.057
33330.824
33315.94
33342.511
33337.056
33354.892
33351.444
33355.45
33351.377
33357.073
33351.314
33357.575
33351.335
33348.958
33327.106
33332.538
33299.746
33331.073
33297.865
33350.366
33324.697
33365.861
33356.322
33366.053
33356.645
33366.328
33357.433
33366.316
33357.643
33347.062
33328.704
33323.94
33305.223
33322.187
33311.836
33341.866
33335.265
33362.651
33361.668
33362.399
33361.969
33361.574
33362.844
33361.281
33363.123
33331.562
33346.65
33322.513
33330.09
33356.914
33366.082
33352.492
33360.873
33353.423
33352.027
33359.099
33351.659
33365.139
33355.375
33366.191
33358.25
33363.419
33360.924
33360.525
33364.017
33322.86
33347.95
33336.77
33340.939
33339.352
33337.465
33348.111
33322.222
33348.518
33321.079
33343.237
33326.939
33341.062
33329.902
33325.825
33346.343
33361.556
33357.353
33359.139
33349.622
33335.823
33327.723
33320.817
33320.936
33337.815
33342.698
33349.302
33353.101
33360.411
33366.206
33326.429
33328.219
33324.951
33329.644
33324.879
33331.981
33324.257
33336.064
33356.719
33325.278
33326.718
33328.389
33330.519
33366.104
33356.279
33365.765
33328.516
33325.152
33326.245
33329.195
33338.644
33350.074
33326.327
33330.389
33326.166
33326.277
33328.721
33328.79
33329.584
33333.012
33326.349
33326.331
33329.012
33328.378
33329.376
33332.693
33327.076
33328.878
33332.413
33327.491
33327.533
33326.362
33336.489
33348.213
33353.396
33362.36
33353.085
33327.68
33328.014
33325.296
33325.334
33361.761
33328.824
33330.045
33328.644
33324.538
33328.506
33322.007
33328.369
33323.554
33351.802
33346.961
33341.792
33339.498
33335.312
33332.729
33327.078
33333.757
33341.43
33345.189
33351.464
33355.976
33328.216
33319.593
33329.064
33316.337
33331.219
33313.344
33333.825
33313.645
33354.101
33330.635
33328.606
33314.319
33311.654
33351.989
33354.476
33351.709
33345.14
33337.148
33330.205
33310.743
33314.415
33333.147
33332.039
33308.68
33334.337
33331.909
33322.594
33316.176
33307.349
33306.809
33334.237
33331.576
33322.562
33314.913
33306.685
33306.129
33331.927
33306.154
33347.434
33338.287
33330.149
33306.189
33308.879
33329.673
33358.228
33351.499
33358.81
33330.849
33326.897
33306.38
33303.758
33351.721
33336.108
33302.289
33331.867
33302.174
33328.122
33301.773
33322.981
33303.585
33362.948
33358.782
33353.266
33350.184
33344.173
33339.248
33301.599
33311.485
33325.547
33333.14
33345.374
33353.624
33319.908
33300.085
33325.126
33298.286
33329.039
33297.682
33334.02
33298.273
33365.588
33326.84
33320.628
33298.408
33297.467
33355.907
33365.722
33356.125
33349.908
33337.179
33324.496
33298.122
33301.479
33325.123
33327.194
33298.21
33330.909
33326.824
33305.314
33300.511
33298.102
33298.886
33330.365
33326.29
33305.498
33300.454
33298.805
33299.614
33325.919
33299.575
33348.815
33335.031
33322.642
33299.711
33304.28
33326.425
33366.398
33357.914
33366.457
33323.454
33318.054
33301.078
33300.708
33358.211
33329.47
33303.423
33323.917
33302.626
33320.046
33303.386
33316.497
33304.889
33365.418
33358.875
33349.947
33344.821
33335.915
33329.498
33313.215
33320.341
33331.835
33338.778
33351.004
33359.832
33318.848
33310.468
33320.32
33311.512
33321.345
33314.808
33322.779
33318.515
33363.283
33320.945
33320.939
33315.545
33316.301
33361.347
33362.948
33361.491
33338.675
33323.571
33321.275
33318.302
33324.644
33339.249
33321.152
33320.154
33321.155
33321.04
33322.562
33320.535
33320.824
33322.978
33321.087
33321.22
33323.101
33321.096
33322.232
33324.318
33321.572
33323.468
33335.17
33321.522
33322.146
33323.061
33330.277
33343.139
33361.091
33363.471
33360.942
33321.973
33323.405
33323.868
33325.165
33363.862
33320.979
33329.925
33322.285
33327.626
33323.389
33326.717
33325.13
33326.537
33348.976
33360.91
33346.427
33352.935
33347.873
33350.264
33358.18
33345.262
33359.509
33345.754
33359.518
33350.498
33358.304
33351.693
33350.402
33359.915
33348.709
33361.061
33346.186
33353.735
33348.412
33349.682
33357.821
33345.286
33359.883
33345.937
33359.784
33350.308
33358.046
33352.022
33350.765
33359.667
33326.991
33328.182
33358.108
33366.635
33352.033
33358.933
33328.464
33324.094
33328.048
33321.663
33352.671
33353.609
33361.068
33352.622
33320.186
33304.121
33317.742
33301.614
33364.557
33354.824
33366.171
33359.119
33315.427
33306.275
33317.649
33310.055
33364.456
33360.589
33360.077
33365.229
33326.171
33327.014
33328.238
33328.37
33327.343
33326.566
33326.553
33325.787
33310.647
33308.087
33308.7
33306.492
33311.276
33309.855
33313.183
33311.818
33327.772
33327.765
33327.113
33327.596
33321.855
33340.148
33324.105
33332.543
33328.352
33328.818
33332.952
33354.031
33328.045
33328.406
33328.674
33329.011
33333.392
33353.525
33335.619
33351.767
33329.022
33327.871
33328.4
33326.996
33337.447
33350.049
33328.747
33326.899
33328.958
33323.627
33331.937
33331.927
33327.72
33324.137
33334.959
33325.235
33331.537
33314.598
33326.798
33319.973
33345.881
33340.106
33325.541
33317.941
33324.919
33318.235
33347.539
33338.187
33349.82
33335.791
33321.613
33311.839
33321.316
33309.97
33351.115
33334.626
33320.364
33308.768
33332.394
33300.674
33340.535
33305.104
33315.129
33304.121
33340.171
33302.882
33331.162
33297.378
33312.144
33300.716
33353.983
33333.009
33310.566
33299.803
33308.251
33300.413
33353.915
33333.352
33353.104
33334.65
33308.241
33301.819
33310.058
33301.851
33352.414
33335.629
33311.411
33303.709
33324.314
33304.773
33332.822
33311.601
33314.632
33308.688
33328.932
33318.13
33321.879
33312.611
33319.514
33314.649
33346.465
33342.683
33320.381
33316.142
33321.13
33317.814
33344.807
33344.529
33341.82
33347.875
33324.619
33323.374
33324.55
33323.575
33340.023
33349.7
33325.683
33325.374
33322.151
33329.968
33320.711
33337.283
33328.536
33328.648
33328.029
33327.274
33325.504
33323.535
33313.991
33310.004
33307.007
33303.287
33308.743
33306.368
33316.081
33314.05
33326.5
33326.461
33324.597
33331.047
33329.25
33321.526
33330.389
33316.474
33330.199
33300.847
33328.591
33298.297
33321.846
33305.126
33321.077
33311.129
33323.259
33329.027
33326.919
33349.559
33338.812
33342.186
33340.073
33340.504
33349.955
33325.74
33350.243
33325.236
33345.21
33331.121
33344.252
33332.406
33328.38
33348.831
33324.871
33350.361
33336.8
33344.574
33342.048
33338.059
33349.415
33326.803
33350.473
33324.908
33346.71
33329.351
33342.54
33334.647
33330.794
33347.354
33328.559
33328.528
33327.381
33327.246
33325.934
33325.51
33310.478
33309.809
33307.036
33306.11
33309.882
33309.354
33313.677
33313.257
33327.489
33327.514
33328.176
33328.045
33327.109
33326.678
33325.951
33324.713
33311.005
33308.821
33307.751
33305.059
33310.014
33308.541
33313.795
33312.361
33327.001
33327.131
33357.817
33366.535
33352.174
33359.671
33352.945
33353.074
33360.492
33352.352
33364.853
33355.053
33366.224
33358.921
33364.2
33360.708
33360.227
33364.916
33323.927
33325.645
33327.019
33328.477
33328.858
33328.188
33329.162
33333.797
33323.555
33325.074
33325.59
33330.222
33330.845
33338.049
33333.094
33327.906
33328.473
33354.061
33327.428
33328.115
33328.475
33328.051
33334.153
33327.777
33328.22
33327.71
33327.797
33353.223
33334.916
33328.158
33328.035
33327.77
33327.261
33352.702
33328.176
33328.613
33327.388
33326.52
33336.951
33328.529
33326.761
33350.788
33329.422
33328.256
33328.427
33323.796
33323.81
33331.924
33329.54
33328.479
33328.284
33328.513
33326.869
33324.752
33322.846
33324.692
33332.07
33329.203
33327.379
33326.231
33322.935
33319.95
33317.016
33315.216
33334.964
33330.573
33330.218
33314.403
33313.556
33317.746
33346.573
33326.098
33317.497
33339.581
33327.077
33325.468
33315.955
33313.976
33348.524
33325.054
33324.793
33313.685
33313.317
33337.406
33349.268
33325.141
33323.93
33313.039
33312.087
33336.715
33325.924
33323.632
33311.272
33309.275
33350.844
33322.595
33309.4
33335.112
33337.939
33330.563
33329.583
33303.268
33302.53
33303.512
33333.765
33326.984
33321.16
33316.09
33308.66
33305.279
33302.748
33300.534
33332.447
33323.935
33316.285
33309.196
33302.661
33300.405
33298.677
33297.715
33336.985
33327.506
33326.038
33297.99
33297.533
33299.359
33354.116
33312.311
33299.753
33333.235
33316.586
33311.479
33299.788
33299.085
33353.756
33312.565
33310.942
33299.514
33299.613
33334.03
33353.719
33312.482
33310.673
33299.992
33299.528
33334.136
33315.429
33310.885
33300.769
33300.206
33352.802
33311.272
33301.726
33335.401
33331.543
33322.696
33321.595
33302.48
33302.355
33306.132
33325.478
33319.087
33314.227
33310.323
33305.883
33304.232
33303.889
33305.211
33322.506
33320.002
33318.573
33317.128
33313.609
33311.761
33311.451
33313.499
33324.712
33321.01
33320.889
33314.036
33314.125
33318.898
33346.018
33320.551
33316.057
33343.424
33321.648
33321.584
33318.123
33317.707
33343.76
33322.267
33322.358
33319.429
33319.585
33346.092
33343.156
33322.727
33322.793
33320.528
33320.106
33346.626
33323.411
33323.852
33322.178
33321.965
33340.725
33324.396
33323.546
33349.233
33320.72
33322.45
33323.07
33326.494
33326.88
33332.845
33322.072
33323.829
33325.392
33326.695
33326.435
33325.762
33326.835
33330.768
33371.236
33371.685
33362.571
33362.977
33359.346
33359.033
33364.624
33364.108
33369.425
33368.92
33372.13
33371.736
33371.842
33371.682
33371.576
33371.714
33371.979
33372.326
33357.861
33358.006
33358.028
33357.873
33366.844
33366.318
33367.665
33367.126
33372.285
33371.994
33372.227
33371.955
33371.953
33372.266
33370.196
33370.665
33369.683
33370.119
33369.114
33369.551
33367.067
33367.541
33366.286
33366.756
33365.482
33365.916
33360.518
33360.147
33360.819
33360.424
33361.16
33360.757
33362.41
33361.952
33362.885
33362.423
33363.413
33362.927
33370.426
33369.941
33370.639
33370.129
33370.851
33370.354
33371.462
33371.034
33371.659
33371.247
33371.883
33371.449
33371.641
33371.537
33371.549
33371.432
33371.472
33371.377
33371.353
33371.375
33371.372
33371.423
33371.451
33371.499
33371.492
33371.902
33361.507
33361.93
33359.049
33358.743
33365.063
33364.566
33369.109
33368.568
33372.179
33371.83
33371.935
33371.73
33371.64
33371.837
33370.658
33371.115
33364.595
33365.028
33360.226
33359.852
33363.909
33363.433
33370.205
33369.695
33372.044
33371.635
33371.751
33371.62
33371.52
33371.606
33371.986
33372.317
33357.881
33357.814
33367.273
33366.741
33372.267
33371.985
33371.791
33372.194
33360.512
33360.932
33358.953
33358.698
33365.733
33365.208
33368.947
33368.419
33372.351
33372.013
33372.11
33371.887
33371.83
33372.062
33371.97
33372.337
33358.427
33358.784
33358.301
33358.102
33366.481
33365.956
33368.112
33367.574
33372.33
33372.024
33372.208
33371.952
33371.936
33372.225
33371.941
33372.318
33359.446
33359.863
33358.658
33358.431
33366.157
33365.635
33368.588
33368.048
33372.376
33372.064
33372.197
33371.947
33371.915
33372.186
33371.049
33371.507
33368.647
33369.115
33367.97
33368.429
33363.658
33364.081
33359.929
33359.593
33361.95
33361.542
33362.383
33361.925
33364.425
33363.922
33369.951
33369.448
33371.35
33370.89
33371.561
33371.093
33372.19
33371.786
33371.857
33371.712
33371.563
33371.519
33371.535
33371.509
33371.61
33371.724
33323.014
33335.776
33342.496
33325.604
33350.461
33358.346
33342.301
33335.295
33345.913
33353.299
33330.575
33325.911
33332.516
33318.754
33347.923
33343.151
33336.311
33345.33
33354.448
33348.791
33327.588
33341.252
33336.038
33299.873
33335.033
33298.318
33357.966
33350.362
33324.763
33341.611
33357.345
33347.478
33328.21
33344.617
33327.406
33307.025
33324.476
33313.838
33353.359
33341.251
33336.093
33348.99
33347.501
33332.279
33346.042
33355.306
33321.74
33332.916
33335.205
33353.388
33341.201
33345.847
33342.317
33344.428
33353.035
33333.18
33353.372
33333.028
33350.337
33338.199
33349.444
33339.27
33336.371
33352.659
33334.677
33353.671
33340.604
33346.691
33343.123
33343.709
33352.806
33333.454
33353.657
33332.983
33350.778
33337.79
33349.008
33339.836
33337.018
33352.349
33322.313
33325.711
33328.475
33336.263
33330.873
33328.542
33322.196
33326.381
33332.827
33329.052
33319.205
33321.282
33336.86
33324.922
33302.082
33300.075
33336.636
33323.547
33299.705
33298.541
33328.011
33318.464
33305.792
33309.027
33325.817
33319.225
33309.308
33313.139
33321.239
33324.744
33327.666
33334.717
33326.377
33328.963
33342.896
33358.477
33323.095
33344.348
33331.508
33339.437
33342.739
33352.694
33329.002
33323.399
33328.864
33319.528
33347.463
33346.006
33339.055
33327.503
33343.619
33315.115
33354.971
33341.23
33324.62
33303.379
33321.634
33300.25
33357.887
33341.59
33344.006
33310.41
33339.516
33315.502
33357.235
33344.985
33317.408
33305.108
33319.23
33310.94
33353.824
33348.682
33331.931
33326.535
33322.832
33339.235
33347.157
33355.827
33325.23
33327.064
33328.52
33328.253
33327.004
33327.122
33326.589
33325.956
33309.619
33309.195
33308.193
33307.036
33310.725
33310.432
33312.821
33312.19
33327.709
33328.02
33321.307
33338.432
33332.506
33328.283
33333.277
33326.041
33339.47
33302.051
33339.229
33301.509
33330.173
33312.179
33328.982
33314.557
33320.931
33337.363
33325.084
33328.051
33325.546
33326.493
33328.303
33328.662
33328.636
33329.636
33323.298
33327.552
33328.421
33339.454
33325.832
33327.436
33328.305
33329.343
33327.069
33324.125
33344.319
33350.462
33341.866
33325.158
33333.445
33358.14
33325.063
33325.57
33326.571
33328.508
33335.396
33340.033
33341.443
33333.796
33326.086
33326.849
33327.031
33327.445
33327.677
33328.023
33328.511
33343.741
33353.473
33357.527
33341.49
33357.242
33341.392
33356.883
33341.353
33335.373
33328.137
33327.597
33327.609
33327.913
33326.768
33326.616
33326.786
33342.551
33352.324
33356.31
33327.924
33327.657
33327.456
33326.207
33332.677
33337.734
33341.73
33327.74
33329.264
33355.361
33333.949
33330.315
33340.723
33347.212
33327.987
33328.311
33325.938
33324.23
33330.013
33328.455
33325.894
33333.293
33328.451
33328.446
33328.428
33326.84
33324.221
33323.248
33328.656
33320.613
33329.888
33328.401
33326.159
33321.522
33317.588
33315.657
33335.568
33327.387
33318.536
33319.738
33329.54
33327.505
33317.082
33313.804
33344.219
33339.805
33325.335
33334.765
33349.745
33332.873
33309.936
33344.053
33337.885
33334.815
33329.688
33311.207
33310.001
33316.55
33350.745
33348.092
33341.204
33329.662
33328.942
33325.977
33313.414
33311.102
33310.585
33322.172
33337.865
33343.149
33351.39
33342.876
33351.745
33342.67
33352.181
33349.659
33342.31
33329.689
33328.733
33325.337
33310.515
33308.397
33307.811
33319.209
33336.3
33342.273
33339.472
33335.823
33329.173
33306.892
33304.862
33310.857
33353.302
33334
33303.552
33341.91
33348.235
33343.23
33316.484
33328.618
33328.729
33323.659
33307.469
33304.276
33339.264
33322.35
33307.25
33305.104
33328.32
33325.053
33317.581
33308.867
33304.575
33302.983
33324.173
33300.642
33325.31
33320.441
33309.851
33301.494
33299.223
33298.2
33338.27
33315.424
33299.865
33301.007
33324.156
33316.404
33299.308
33297.867
33350.251
33343.481
33310.548
33324.932
33358.448
33330.702
33297.951
33342.297
33338.509
33333.164
33323.038
33298.107
33299.038
33303.405
33358.382
33353.916
33342.761
33322.621
33321.049
33314.518
33299.105
33298.65
33298.64
33311.168
33333.747
33342.632
33358.471
33342.924
33358.385
33343.203
33358.237
33353.48
33341.735
33321.629
33320.121
33313.95
33299.663
33299.514
33299.458
33312.343
33334.447
33343.333
33336.518
33331.038
33321.275
33299.879
33301.426
33305.763
33358.056
33327.828
33300.859
33343.96
33348.256
33340.397
33313.943
33327.312
33320.593
33314.277
33302.183