/*--------------------------------*- C++ -*----------------------------------*\
| =========                 |                                                 |
| \\      /  F ield         | OpenFOAM: The Open Source CFD Toolbox           |
|  \\    /   O peration     | Version:  v2106                                 |
|   \\  /    A nd           | Website:  www.openfoam.com                      |
|    \\/     M anipulation  |                                                 |
\*---------------------------------------------------------------------------*/
FoamFile
{
    version     2.0;
    format      ascii;
    class       dictionary;
    object      blockMeshDict;
}
// * * * * * * * * * * * * * * * * * * * * * * * * * * * * * * * * * * * * * //

vertices
(
    (-6.046e-5 -3.046e-5 -3.046e-5)
    (3.046e-5 -3.046e-5 -3.046e-5)
    (3.046e-5 3.046e-5 -3.046e-5)
    (-6.046e-5  3.046e-5 -3.046e-5)
    (-6.046e-5 -3.046e-5  3.046e-5)
    (3.046e-5 -3.046e-5  3.046e-5)
    (3.046e-5  3.046e-5  3.046e-5)
    (-6.046e-5  3.046e-5 3.046e-5)
);

blocks
(
//    hex (0 1 2 3 4 5 6 7) (15 10 10) simpleGrading (1 1 1)
    hex (0 1 2 3 4 5 6 7) (45 30 30) simpleGrading (1 1 1)
);

edges
();

boundary        
(
    minX
    {
        type patch;
	faces
	( 
            (0 4 7 3)
	);
    }

    maxX
    {
        type patch;
	faces
	( 
            (2 6 5 1)
	);
    }

    minY
    {
        type  patch;
	faces
	( 
            (1 5 4 0)
	);
    }

    maxY 
    {
        type  patch;
	faces
	( 
            (3 7 6 2)
	);
    }

    minZ
    {
        type  patch;
	faces
	( 
            (0 3 2 1)
	);
    }

    maxZ
    {
        type patch;
	faces
	( 
            (4 5 6 7)
	);
    }

);

// ************************************************************************* //
