/*--------------------------------*- C++ -*----------------------------------*\
| =========                 |                                                 |
| \\      /  F ield         | OpenFOAM: The Open Source CFD Toolbox           |
|  \\    /   O peration     | Version:  2112                                  |
|   \\  /    A nd           | Website:  www.openfoam.com                      |
|    \\/     M anipulation  |                                                 |
\*---------------------------------------------------------------------------*/
FoamFile
{
    version     2.0;
    format      ascii;
    arch        "LSB;label=64;scalar=64";
    class       triSurfacePointScalarField;
    location    "constant/triSurface";
    object      PorousMedia.curvature;
}
// * * * * * * * * * * * * * * * * * * * * * * * * * * * * * * * * * * * * * //

dimensions      [0 1 0 0 0 0 0];

value           nonuniform List<scalar> 
9802
(
33112.325
33112.989
33113.005
33111.083
33111.938
33101.071
33108.876
33093.209
33100.638
33084.129
33098.982
33086.502
33105.674
33100.522
33108.95
33108.442
33112.492
33112.504
33111.801
33110.973
33109.985
33108.11
33097.221
33093.241
33092.151
33088.111
33094.241
33091.626
33099.635
33097.347
33110.971
33110.945
33109.61
33111.585
33113.237
33114.378
33112.352
33113.163
33109.657
33107.865
33114.332
33112.385
33102.147
33098.364
33113.925
33109.258
33090.615
33087.416
33110.617
33103.009
33084.216
33082.078
33106.355
33100.446
33087.308
33086.664
33105.319
33104.991
33098.495
33098.114
33107.108
33109.187
33109.45
33110.635
33113.463
33113.69
33113.745
33113.1
33106.708
33102.895
33105.173
33100.016
33086.932
33085.359
33087.804
33085.748
33106.232
33104.824
33108.185
33106.834
33111.463
33112.817
33113.278
33108.087
33113.365
33106.713
33105.551
33088.1
33104.703
33086.72
33101.573
33092.138
33102.403
33093.856
33111.014
33112.466
33112.595
33112.301
33112.506
33112.028
33108.714
33099.566
33107.179
33097.081
33094.049
33083.995
33093.864
33084.886
33106.454
33103.07
33107.619
33105.746
33107.54
33117.445
33114.623
33106.053
33115.806
33103.113
33117.832
33083.766
33117.92
33082.592
33109.025
33092.884
33108.09
33094.423
33106.943
33117.184
33109.041
33116.622
33110.557
33114.514
33111.257
33113.044
33110.921
33111.679
33112.323
33113.326
33111.771
33112.246
33111.094
33111.659
33112.053
33110.833
33112.425
33110.23
33113.843
33107.218
33115.424
33099.984
33114.72
33096.32
33114.271
33095.929
33114.885
33112.784
33096.389
33094.42
33114.805
33112.376
33093.586
33091.617
33113.695
33091.696
33115.068
33090.014
33116.228
33085.702
33114.278
33082.792
33109.638
33082.85
33107.706
33082.882
33108.968
33104.271
33083.516
33083.006
33107.805
33103.387
33084.258
33083.926
33105.976
33084.7
33107.269
33084.94
33108.042
33089.059
33106.281
33097.353
33105.87
33102.153
33106.157
33102.5
33105.868
33106.408
33103.313
33103.913
33106.541
33107.258
33105.947
33106.795
33107.044
33107.471
33106.771
33108.491
33107.488
33113.583
33153.803
33146.431
33145.068
33148.954
33153.863
33144.838
33149.529
33153.758
33153.794
33153.167
33152.763
33151.86
33151.079
33148.748
33145.16
33145.394
33145.538
33145.508
33145.334
33145.17
33145.452
33146.068
33146.484
33146.954
33147.173
33148.124
33150.131
33151.495
33152.074
33152.713
33152.994
33153.633
33153.704
33152.358
33151.47
33149.7
33148.339
33145.545
33145.073
33145.887
33146.413
33147.087
33147.426
33148.608
33150.765
33152.066
33152.598
33153.114
33153.283
33153.688
33153.816
33153.658
33153.623
33153.548
33153.503
33153.729
33152.461
33152.179
33145.462
33145.443
33146.559
33146.723
33152.243
33152.476
33150.917
33150.311
33146.551
33146.785
33152.736
33152.895
33153.576
33153.532
33153.994
33148.27
33145.425
33145.488
33145.697
33148.618
33150.123
33153.87
33153.958
33145.335
33145.216
33149.192
33150.792
33153.925
33153.956
33153.952
33153.997
33147.135
33145.911
33145.463
33145.53
33149.067
33149.547
33153.984
33154.073
33145.094
33145.044
33149.671
33150.219
33153.936
33153.979
33154.022
33153.616
33150.311
33145.6
33145.549
33146.085
33147.804
33151.183
33153.474
33153.192
33147.02
33145.743
33148.181
33151.844
33153.678
33153.855
33153.682
33153.814
33149.334
33145.469
33145.453
33145.807
33148.153
33150.594
33153.684
33153.664
33145.953
33145.39
33148.62
33151.286
33153.772
33153.905
33153.764
33153.772
33149.855
33145.639
33145.6
33146.047
33148.06
33150.971
33153.635
33153.492
33146.434
33145.643
33148.506
33151.655
33153.798
33153.914
33153.764
33153.414
33153.024
33151.536
33150.697
33145.489
33145.618
33145.571
33145.444
33146.069
33146.417
33147.209
33147.478
33151.347
33151.886
33152.964
33153.229
33152.786
33152.003
33149.039
33147.675
33145.821
33146.278
33147.406
33147.792
33151.949
33152.475
33153.305
33153.499
33153.742
33153.702
33153.565
33153.593
33154.18
33147.809
33145.817
33145.849
33145.984
33149.16
33150.139
33154.124
33154.217
33145.316
33145.363
33149.805
33150.869
33154.139
33154.14
33154.179
33110.126
33112.918
33113.365
33106.288
33112.965
33105.337
33108.224
33086.291
33107.022
33085.594
33102.638
33091.054
33103.153
33093.352
33110.049
33111.929
33112.993
33112.706
33111.475
33111.562
33111.046
33110.425
33094.251
33093.75
33092.776
33091.679
33095.361
33095.083
33097.473
33096.786
33112.18
33112.481
33113.709
33113.626
33113.678
33113.544
33105.75
33102.557
33104.953
33101.793
33085.318
33085.429
33086.136
33085.659
33106.771
33105.799
33107.461
33106.499
33109.939
33115.37
33113.858
33107.189
33114.904
33101.151
33114.206
33086.823
33111.757
33083.479
33105.94
33089.034
33105.58
33097.034
33108.343
33112.668
33113.723
33114.14
33113.581
33113.856
33113.827
33113.496
33113.998
33113.543
33105.093
33104.936
33104.256
33103.971
33103.838
33102.847
33103.265
33102.176
33085.367
33085.781
33085.27
33085.579
33085.864
33085.578
33086.623
33086.17
33105.701
33105.828
33106.305
33106.321
33107.207
33106.776
33108.062
33107.54
33145.281
33141.105
33105.885
33127.231
33110.285
33114.201
33110.004
33112.604
33112.927
33115.244
33112.784
33112.552
33112.466
33112.725
33112.964
33111.788
33112.639
33111.889
33112.403
33112.985
33111.477
33110.029
33113
33108.099
33120.04
33118.339
33114.767
33100.305
33115.292
33110.909
33102.032
33096.486
33110.799
33100.9
33111.805
33098.077
33111.019
33095.22
33107.056
33095.284
33115.575
33107.077
33094.255
33088.627
33112.952
33087.925
33128.696
33096.225
33110.231
33082.95
33111.541
33097.26
33084.394
33082.394
33096.998
33083.974
33101.065
33084.279
33100.302
33084.918
33095.896
33086.179
33108.222
33096.147
33086.605
33085.58
33105.078
33088.217
33120.52
33105.026
33104.991
33097.299
33105.741
33105.224
33100.604
33101.113
33105.707
33101.274
33106.816
33103.6
33108.038
33106.14
33108.578
33107.746
33106.718
33108.99
33108.305
33109.864
33108.057
33111.78
33111.885
33112.935
33113.28
33113.444
33114.443
33114.105
33114.017
33114.219
33113.108
33112.831
33113.258
33108.823
33112.771
33107.782
33106.506
33105.125
33106.37
33104.247
33103.814
33102.213
33101.689
33099.349
33103.401
33088.88
33101.792
33087.762
33086.138
33085.413
33086.125
33085.717
33086.942
33086.799
33088.118
33087.077
33100.062
33092.338
33101.491
33094.349
33104.263
33103.411
33106.607
33105.669
33108.307
33108.083
33108.714
33108.323
33111.506
33112.171
33110.214
33113.523
33114.008
33113.517
33113.658
33113.749
33113.129
33107.052
33114.077
33102.523
33107.387
33101.378
33106.269
33100.935
33111.077
33087.039
33109.335
33083.731
33088.553
33085.383
33088.681
33085.947
33103.963
33089.718
33104.515
33095.027
33107.432
33105.454
33107.845
33106.521
33108.857
33112.273
33112.346
33113.133
33113.095
33110.409
33111.666
33105.969
33103.798
33091.479
33098.205
33086.178
33097.41
33089.683
33102.734
33097.229
33110.741
33110.715
33107.667
33117.799
33131.916
33145.291
33113.527
33113.573
33113.784
33113.191
33129.8
33140.01
33114.295
33107.029
33115.835
33101.946
33134.112
33132.278
33107.469
33101.019
33107.299
33099.826
33140.644
33129.464
33118.037
33083.959
33117.591
33082.334
33144.713
33130.701
33090.235
33085.474
33090.373
33085.447
33144.625
33133.722
33109.484
33091.609
33107.874
33095.549
33141.123
33137.274
33107.37
33105.383
33107.965
33105.951
33136.15
33142.655
33106.686
33116.446
33112.049
33112.542
33112.538
33109.379
33112.17
33108.287
33100.495
33089.675
33099.069
33088.216
33098.841
33092.578
33100.25
33094.5
33111.64
33111.97
33112.107
33112.343
33113.047
33113.09
33112.255
33112.822
33131.246
33112.407
33113.082
33113.389
33112.781
33145.098
33112.618
33112.205
33112.371
33111.86
33129.962
33112.901
33113.407
33112.264
33111.395
33142.157
33112.852
33110.844
33113.108
33113.038
33110.803
33110.458
33111.868
33111.521
33103.766
33103.251
33111.609
33102.226
33135.817
33111.058
33109.372
33102.688
33100.623
33131.314
33110.889
33099.315
33108.232
33095.484
33139.489
33108.329
33106.155
33096.335
33094.412
33129.82
33107.29
33092.762
33107.128
33105.939
33092.534
33091.915
33100.056
33098.535
33084.924
33084.715
33099.471
33084.241
33145.363
33098.512
33093.084
33084.986
33084.102
33131.575
33098.181
33083.652
33097.254
33085.517
33145.291
33097.401
33093.088
33086.389
33085.806
33133.218
33097.817
33087.06
33098.193
33097.15
33087.897
33087.722
33104.335
33104.099
33098.783
33098.648
33104.894
33099.406
33140.243
33105.738
33105.679
33102.262
33101.429
33138.62
33106.263
33101.915
33108.048
33106.889
33137.474
33108.659
33109.055
33107.796
33107.458
33141.614
33109.2
33108.93
33109.602
33109.813
33109.582
33109.557
33105.918
33123.971
33117.221
33114.781
33118.846
33112.234
33125.057
33089.19
33125.296
33087.989
33116.304
33098.72
33115.06
33100.427
33105.125
33123.402
33131.812
33145.477
33113.033
33113.389
33113.4
33113.538
33113.428
33112.971
33113.172
33112.266
33130.016
33140.908
33134.859
33132.121
33107.984
33104.898
33107.287
33103.498
33104.241
33099.17
33102.759
33096.982
33140.486
33129.729
33145.118
33131.185
33088.825
33085.5
33087.734
33085.195
33088.694
33086.242
33090.301
33087.228
33145.053
33133.693
33140.941
33137.888
33104.085
33101.913
33105.572
33103.821
33108.501
33107.54
33109.312
33108.515
33136.741
33142.459
33151.082
33155.717
33141.392
33145.323
33140.384
33142.474
33149.489
33143.917
33151.56
33145.648
33155.436
33151.498
33154.827
33151.893
33151.666
33155.162
33112.708
33113.132
33130.729
33144.579
33130.195
33143.268
33113.117
33111.671
33110.156
33102.735
33136.991
33130.764
33138.541
33130.133
33106.043
33094.73
33095.342
33084.709
33145.516
33132.079
33145.516
33132.746
33094.935
33086.695
33105.189
33100.955
33139.425
33139.49
33138.314
33140.734
33109.327
33108.262
33108.533
33115.312
33113.758
33104.641
33114.118
33101.688
33114.575
33084.434
33113.227
33083.062
33106.532
33090.091
33106.016
33094.507
33107.868
33113.49
33148.152
33153.926
33146.52
33152.282
33142.637
33140.143
33144.226
33140.631
33154.774
33149.02
33155.32
33149.884
33153.113
33152.667
33152.615
33153.166
33133.833
33145.16
33131.218
33136.765
33132.018
33135.389
33142.972
33129.933
33143.694
33130.128
33143.688
33135.302
33143.078
33135.882
33134.55
33144.689
33149.915
33155.404
33144.18
33149.511
33141.154
33140.499
33146.689
33142.004
33153.742
33147.76
33155.74
33150.881
33153.963
33152.33
33152.215
33154.13
33154.027
33157.683
33144.908
33148.427
33141.971
33142.725
33149.704
33145.725
33154.03
33149.579
33157.636
33154.488
33156.757
33154.916
33154.808
33156.925
33154.12
33157.651
33150.86
33155.9
33142.545
33147.16
33144.183
33147.458
33141.897
33143.102
33140.637
33141.623
33148.602
33143.293
33150.19
33146.101
33153.446
33149.022
33152.686
33146.711
33155.768
33151.449
33157.52
33154.49
33156.824
33154.826
33154.642
33152.19
33152.007
33154.932
33154.703
33157.019
33108.951
33113.566
33111.13
33112.906
33132.547
33110.832
33113.238
33145.635
33153.505
33110.049
33114.11
33157.401
33156.747
33157.737
33109.095
33110.287
33110.547
33114.493
33116.255
33128.836
33111.676
33112.953
33110.719
33113.833
33112.032
33110.991
33112.389
33110.797
33115.033
33112.764
33112.469
33109.973
33111.009
33125.409
33149.599
33150.577
33146.259
33112.731
33108.127
33150.128
33130.315
33112.984
33108.548
33139.621
33113.059
33108.287
33113.697
33104.208
33112.949
33104.329
33133.83
33112.648
33102.11
33133.124
33142.144
33114.039
33099.364
33142.041
33143.102
33142.627
33124.545
33116.181
33115.123
33097.149
33096.341
33109.976
33114.358
33097.565
33114.846
33095.31
33114.821
33090.783
33112.582
33091.835
33127.756
33116.642
33114.627
33089.483
33088.645
33101.33
33148.543
33147.494
33148.472
33113.175
33088.128
33144.742
33141.468
33109.907
33089.015
33129.738
33107.749
33088.457
33111.606
33084.562
33104.76
33084.948
33144.8
33105.047
33083.918
33130.848
33154.866
33109.316
33082.741
33150.421
33155.487
33154.386
33128.143
33112.93
33110.351
33082.608
33082.641
33095.282
33106.986
33083.011
33109.321
33082.819
33107.408
33084.402
33104.482
33085.759
33124.985
33109.473
33107.022
33085.907
33086.127
33098.81
33158.242
33157.36
33157.619
33105.178
33086.827
33154.201
33144.708
33101.678
33087.661
33134.282
33101.318
33089.753
33104.735
33092.159
33103.608
33095.264
33141.789
33104.624
33097.221
33137.205
33156.396
33105.211
33098.324
33154.932
33157.846
33157.525
33115.276
33106.178
33105.705
33100.824
33101.769
33113.282
33105.987
33101.301
33105.792
33102.944
33106.615
33107.693
33107.76
33108.604
33108.816
33106.795
33107.137
33109.774
33110.725
33122.128
33157.445
33157.706
33154.855
33107.685
33110.373
33156.487
33136.002
33108.847
33109.968
33143.363
33109.839
33111.28
33157.32
33158.264
33147.706
33148.635
33142.641
33142.363
33149.753
33148.673
33154.765
33153.637
33158.46
33157.641
33158.075
33157.675
33157.599
33157.991
33153.867
33157.622
33150.212
33155.552
33154.363
33155.375
33153.68
33154.74
33143.528
33148.679
33145.626
33149.37
33142.125
33142.401
33140.833
33140.708
33145.277
33144.457
33145.786
33144.926
33147.246
33142.338
33149.163
33145.34
33154.567
33150.073
33153.344
33147.338
33157.101
33156.051
33157.331
33156.346
33155.701
33151.026
33157.692
33154.441
33156.654
33154.968
33154.142
33152.207
33157.436
33157.321
33157.368
33157.355
33152.072
33154.341
33154.875
33156.792
33157.784
33158.572
33144.831
33145.664
33142.534
33142.743
33151.397
33150.288
33153.447
33152.28
33158.536
33157.865
33158.386
33157.819
33157.779
33158.406
33157.523
33158.38
33146.684
33147.633
33142.43
33142.299
33150.271
33149.175
33154.318
33153.159
33158.467
33157.734
33158.189
33157.692
33157.626
33158.135
33156.421
33157.443
33150.555
33151.539
33143.572
33142.989
33148.059
33147.055
33155.92
33154.831
33158.169
33157.25
33157.771
33157.508
33157.44
33157.627
33157.126
33158.087
33148.713
33149.682
33142.952
33142.554
33149.248
33148.194
33155.234
33154.105
33158.427
33157.589
33158.019
33157.647
33157.568
33157.909
33157.862
33158.578
33153.205
33157.231
33156.046
33157.069
33155.638
33156.669
33152.341
33153.374
33151.453
33152.468
33147.017
33150.988
33143.35
33143.936
33142.416
33141.877
33144.046
33143.396
33144.621
33143.919
33147.167
33146.214
33147.571
33146.597
33147.873
33144.332
33152.485
33151.342
33155.29
33150.862
33156.323
33155.239
33156.749
33155.681
33157.977
33157.02
33158.058
33157.126
33157.628
33154.059
33158.516
33157.896
33156.233
33155.01
33157.716
33157.482
33157.693
33157.502
33157.483
33157.57
33157.435
33157.576
33154.949
33156.296
33157.833
33158.583
33144.007
33144.736
33142.824
33143.237
33151.938
33150.803
33152.957
33151.807
33158.524
33157.882
33158.451
33157.853
33157.821
33158.497
33157.733
33158.556
33145.79
33146.693
33142.493
33142.522
33150.93
33149.822
33153.975
33152.813
33158.569
33157.871
33158.345
33157.808
33157.759
33158.335
33155.13
33156.14
33153.118
33154.188
33145.137
33144.366
33146.662
33145.76
33157.086
33156.009
33157.793
33156.838
33157.649
33157.48
33157.491
33157.547
33154.287
33157.657
33143.61
33146.631
33142.077
33143.685
33150.799
33146.64
33152.993
33148.574
33157.465
33154.589
33156.986
33154.809
33154.665
33157.213
33151.392
33155.765
33141.168
33144.692
33140.654
33143.259
33150.205
33144.499
33151.225
33145.382
33155.428
33151.748
33155.139
33151.924
33151.656
33155.493
33150.615
33155.81
33112.994
33113.445
33149.274
33154.959
33148.738
33154.465
33151.397
33155.651
33149.663
33153.902
33146.026
33151.748
33145.536
33151.15
33113.203
33111.99
33143.078
33147.993
33140.79
33141.196
33109.081
33105.228
33142.02
33140.404
33142.345
33140.226
33143.783
33141.838
33145.359
33142.6
33144.931
33141.059
33145.683
33141.465
33102.884
33095.579
33148.006
33142.897
33153.111
33147.099
33091.104
33085.724
33154.511
33148.621
33154.673
33148.816
33156.433
33152.202
33157.082
33153.078
33155.552
33150.265
33155.77
33150.601
33092.264
33087.854
33155.802
33151.314
33154.451
33152.244
33103.801
33100.877
33153.676
33152.624
33153.392
33152.632
33155.507
33155.144
33155.15
33155.485
33152.562
33153.474
33152.533
33153.788
33109.911
33109.109
33152.083
33154.705
33154.576
33157.783
33143.302
33145.996
33142.509
33144.537
33151.61
33147.327
33152.672
33148.328
33157.543
33154.825
33157.29
33154.939
33154.766
33157.542
33151.71
33155.844
33132.981
33112.608
33113.247
33145.696
33149.713
33155.297
33152.023
33130.991
33144.904
33156.214
33130.585
33144.202
33130.341
33143.822
33149.103
33130.099
33142.755
33153.348
33144.944
33150.453
33130.615
33113.136
33110.8
33138.994
33141.104
33144.168
33133.357
33111.405
33106.525
33133.754
33141.683
33140.525
33143.493
33136.435
33131.065
33141.88
33137.579
33130.496
33137.983
33130.376
33146.129
33139.073
33129.985
33143.113
33146.306
33141.841
33142.004
33102.946
33092.116
33129.814
33150.969
33145.182
33144.631
33096.767
33086.635
33130.766
33154.258
33148.301
33156.312
33145.478
33131.862
33152
33145.61
33132.305
33145.556
33132.586
33157.354
33145.453
33132.998
33153.474
33155.855
33150.856
33144.565
33096.414
33089.978
33134.634
33155.472
33152.026
33142.251
33102.441
33097.521
33136.944
33153.91
33152.544
33155.774
33139.851
33139.081
33155.147
33139.101
33139.916
33138.725
33140.373
33155.13
33137.915
33141.193
33155.767
33152.437
33154.056
33135.7
33110.855
33110.819
33143.832
33152.941
33157.092
33152.575
33156.746
33148.553
33152.723
33147.864
33151.904
33142.861
33141.95
33143.285
33141.972
33146.883
33143.69
33147.439
33144.039
33155.777
33151.413
33156.159
33151.797
33157.613
33153.827
33157.706
33153.985
33156.149
33155.17
33156.016
33155.203
33155.168
33156.041
33155.122
33156.193
33151.02
33155.884
33141.995
33146.284
33140.539
33142.062
33149.108
33143.671
33152.201
33146.24
33155.661
33151.519
33154.772
33152.09
33151.886
33155.098
33113.047
33113.658
33131.715
33145.523
33151.097
33147.925
33153.77
33155.392
33150.537
33147.414
33153.19
33154.795
33130.195
33141.741
33113.453
33111.791
33110.281
33105.781
33135.507
33131.926
33144.66
33143.558
33140.691
33142.372
33145.143
33144.129
33140.819
33142.664
33140.238
33129.949
33103.373
33094.409
33093.639
33086.183
33145.448
33131.59
33156.977
33155.325
33149.697
33152.811
33157.19
33155.537
33149.947
33153.099
33145.375
33133.646
33094.116
33088.64
33103.581
33099.944
33140.771
33138.433
33155.582
33153.185
33153.12
33155.485
33155.488
33153.048
33153.26
33155.58
33137.251
33142.23
33110.514
33109.868
33106.518
33124.707
33116.487
33116.731
33119.643
33109.909
33125.093
33090.052
33124.921
33087.656
33117.514
33096.493
33113.741
33102.808
33105.419
33122.034
33108.366
33116.612
33115.1
33104.135
33114.625
33103.181
33116.095
33083.994
33114.967
33083.981
33107.126
33091.674
33106.938
33094.639
33108.319
33114.981
33154.8
33134.116
33144.871
33157.808
33109.626
33113.876
33108.396
33123.66
33113.569
33118.916
33112.765
33106.786
33143.008
33131.535
33135.994
33145.378
33113.898
33100.784
33120.717
33102.855
33123.317
33090.88
33112.446
33086.663
33152.308
33143.273
33129.948
33147.987
33110.01
33082.789
33122.74
33085.448
33118.143
33091.363
33104.917
33088.326
33157.544
33143.318
33135.513
33155.009
33104.91
33095.876
33109.844
33105.762
33105.464
33117.78
33107.952
33111.578
33133.341
33145.606
33130.852
33138.364
33133.066
33134.317
33142.41
33129.973
33144.477
33130.595
33144.31
33134.946
33142.613
33136.607
33135.324
33144.251
33109.956
33113.962
33113.746
33106.279
33113.796
33103.706
33111.25
33086.273
33109.58
33084.556
33104.071
33090.408
33104.519
33094.53
33109.34
33112.495
33119.919
33138.012
33125.984
33130.409
33126.856
33129.118
33137.683
33117.818
33137.876
33117.794
33134.944
33122.835
33134.049
33123.971
33121.057
33137.186
33112.468
33112.726
33111.96
33110.553
33111.074
33109.852
33096.21
33091.792
33094.126
33090.416
33096.363
33093.91
33098.22
33095.903
33112.117
33112.011
33112.376
33112.483
33113.821
33113.776
33113.752
33113.515
33111.64
33110.333
33106.386
33103.453
33104.361
33100.95
33095.273
33091.224
33085.805
33085.418
33087.058
33086.134
33097.283
33094.95
33106.298
33105.113
33108.131
33107.319
33106.479
33128.537
33118.515
33121.284
33121.795
33115.467
33128.774
33097.707
33128.694
33095.609
33122.447
33102.382
33118.672
33108.229
33106.382
33125.688
33119.413
33138.18
33125.166
33131.321
33127.763
33128.275
33137.304
33118.168
33138.238
33117.619
33135.34
33122.486
33133.648
33124.447
33121.697
33136.945
33112.625
33112.643
33111.308
33111.05
33093.54
33092.741
33096.421
33095.952
33120.569
33105.404
33107.02
33111.712
33112.549
33116.195
33123.618
33137.755
33111.12
33113.476
33111.011
33113.506
33108.04
33122.68
33117.697
33112.291
33113.37
33138.648
33112.083
33113.05
33110.44
33112.54
33113.042
33115.27
33109.499
33111.066
33111.688
33112.222
33112.987
33113.275
33114.81
33124.823
33110.937
33110.512
33111.448
33115.214
33117.141
33128.327
33111.295
33114.41
33111.342
33114.208
33112.792
33111.353
33112.076
33113.703
33115.541
33127.204
33112.637
33112.277
33112.698
33113.092
33111.337
33111.026
33112.02
33122.314
33112.459
33113.037
33111.484
33110.883
33113.019
33110.769
33122.18
33113.367
33110.974
33134.683
33114.048
33116.474
33113.128
33108.614
33113.507
33108.204
33126.561
33117.968
33114.412
33113
33108.304
33103.376
33113.416
33129.898
33113.711
33104.119
33113.481
33101.733
33119.364
33102.512
33130.562
33110.959
33103.248
33124.813
33112.534
33100.514
33115.466
33112.68
33099.734
33095.843
33122.343
33115.927
33113.875
33111.939
33098.976
33097.063
33095.063
33101.491
33125.897
33117.982
33116.895
33093.811
33092.482
33106.898
33116.751
33092.491
33116.414
33091.83
33126.873
33118.253
33116.753
33091.4
33090.033
33104.015
33124.256
33115.91
33113.41
33110.898
33094.198
33092.527
33090.793
33095.586
33115.951
33110.463
33093.806
33089.594
33109.892
33092.599
33135.754
33106.94
33093.171
33119.361
33122.57
33088.142
33110.814
33088.932
33109.234
33088.334
33137.93
33125.096
33116.559
33102.559
33088.268
33082.762
33088.459
33117.929
33106.556
33084.953
33106.683
33083.754
33121.543
33084.206
33138.592
33097.722
33084.988
33117.762
33102.36
33083.946
33111.166
33102.105
33084.031
33082.803
33123.152
33110.888
33106.288
33101.448
33084.195
33083.611
33083.037
33088.417
33127.403
33114.713
33111.915
33083.375
33083.055
33095.953
33111.596
33083.27
33111.055
33083.964
33126.385
33113.406
33110.701
33084.794
33084.579
33097.199
33121.286
33108.938
33104.719
33100.299
33085.194
33085.018
33084.966
33090.449
33108.583
33100.354
33086.17
33085.1
33100.287
33086.363
33137.046
33096.544
33087.038
33120.355
33116.214
33090.728
33102.916
33088.037
33102.222
33090.063
33134.606
33115.572
33107.605
33100.826
33093.316
33092.742
33099.466
33123.518
33103.919
33095.57
33105.037
33097.32
33109.48
33103.636
33131.132
33104.631
33100.032
33127.374
33105.63
33100.502
33105.952
33106.229
33101.615
33102.534
33109.355
33106.102
33106.32
33106.391
33102.708
33102.903
33103.577
33110.972
33113.005
33105.953
33106.272
33105.111
33105.95
33116.426
33106.069
33105.776
33106.236
33107.172
33110.943
33105.688
33106.608
33108.415
33109.25
33119.465
33106.615
33106.695
33107.546
33108.257
33106.831
33107.434
33108.623
33115.923
33106.629
33108.486
33108.14
33109.096
33108.776
33108.53
33124.744
33109.576
33108.757
33134.336
33105.362
33117.325
33108.924
33110.635
33109.814
33111.92
33113.691
33113.657
33113.13
33113.35
33112.754
33112.269
33112.961
33112.731
33109.706
33108.195
33108.326
33107.225
33099.345
33096.78
33098.727
33096.778
33090.399
33087.957
33088.613
33087.022
33090.919
33089.513
33092.302
33090.794
33101.452
33100.396
33101.919
33100.861
33110.194
33109.942
33111.063
33111.003
33113.336
33113.54
33117.807
33138.687
33122.805
33134.028
33113.097
33112.088
33110.085
33107.288
33130.002
33125.487
33136.131
33119.031
33100.573
33094.941
33091.853
33087.143
33138.547
33117.693
33136.762
33120.706
33093.454
33090.105
33102.237
33099.546
33131.631
33126.775
33124.152
33134.886
33110.938
33110.698
33142.832
33150.564
33135.773
33141.425
33136.013
33138.727
33145.949
33137.033
33147.674
33138.219
33149.968
33143.584
33149.101
33144.369
33143.856
33149.792
33110.547
33113.553
33110.971
33113.038
33108.318
33118.314
33118.14
33138.077
33120.305
33136.38
33113.436
33110.171
33112.938
33108.39
33113.432
33107.457
33113.644
33103.474
33113.324
33102.877
33116.465
33098.516
33132.207
33122.835
33134.399
33120.512
33118.324
33085.355
33109.225
33088.67
33110.177
33087.501
33107.768
33084.477
33105.965
33084.112
33116.677
33082.08
33138.514
33118.035
33137.67
33119.372
33110.723
33088.588
33101.924
33088.87
33103.126
33089.667
33104.255
33095.406
33104.165
33096.079
33106.858
33099.065
33129.477
33129.144
33126.504
33132.512
33106.286
33114.325
33109.199
33111.059
33109.487
33111.813
33133.65
33145.554
33131.19
33137.658
33132.655
33134.994
33142.867
33130.05
33144.204
33130.514
33144.137
33135.2
33142.917
33136.375
33135.054
33144.574
33110.659
33113.498
33113.817
33106.717
33114.109
33105.095
33109.705
33086.768
33108.866
33085.477
33103.443
33091.947
33103.945
33093.617
33109.995
33113.118
33107.126
33120.796
33111.896
33113.585
33141.842
33150.685
33136.719
33144.648
33113.75
33109.193
33115.355
33111.118
33117.578
33105.95
33112.953
33105.679
33137.456
33136.928
33144.163
33136.325
33107.013
33089.402
33121.411
33085.04
33121.301
33083.236
33103.273
33086.121
33149.29
33139.607
33150.586
33142.999
33100.679
33090.332
33112.77
33093.924
33110.506
33097.764
33103.714
33096.191
33148.275
33145.227
33144.828
33148.847
33110.821
33111.534
33105.886
33119.422
33142.731
33150.875
33136.154
33142.402
33136.533
33138.412
33145.755
33137.044
33148.321
33138.794
33150.343
33143.591
33149.028
33144.764
33144.271
33149.738
33112.099
33112.576
33109.917
33116.256
33117.877
33138.472
33112.761
33112.89
33112.277
33112.371
33139.609
33149.08
33139.17
33148.6
33112.591
33111.627
33113.061
33111.93
33121.067
33135.873
33113.924
33107.766
33112.685
33109.142
33115.162
33099.941
33131.685
33123.62
33111.838
33099.485
33110.853
33098.213
33140.441
33135.817
33140.988
33135.792
33109.99
33095.476
33109.746
33095.167
33135.025
33120.114
33115.671
33086.994
33100.086
33089.242
33112.488
33083.258
33138.587
33118.062
33099.972
33084.244
33099.381
33083.987
33150.628
33141.425
33150.721
33141.692
33098.792
33084.696
33098.742
33085.685
33137.615
33119.695
33107.313
33088.154
33099.647
33093.796
33106.203
33098.558
33130.065
33128.684
33106.447
33102.595
33106.596
33103.187
33146.693
33146.768
33146.411
33147.062
33107.669
33105.761
33108.485
33107.204
33126.005
33133.154
33107.897
33112.282
33106.978
33131.38
33120.215
33124.384
33123.419
33119.369
33131.356
33103.732
33131.325
33102.214
33126.254
33107.594
33122.654
33112.866
33108.981
33128.458
33112.293
33112.43
33141.575
33150.647
33113.987
33113.937
33140.495
33149.947
33138.374
33147.53
33113.806
33113.393
33137.129
33145.48
33111.793
33109.971
33138.051
33136.656
33108.616
33104.664
33139.488
33136.065
33142.147
33135.953
33103.915
33098.982
33143.679
33136.297
33096.175
33090.517
33149.701
33139.99
33089.092
33085.736
33150.403
33140.94
33150.886
33142.25
33089.703
33087.31
33150.762
33142.881
33097.886
33094.58
33148.061
33145.545
33105.277
33103.327
33147.281
33146.298
33145.949
33147.713
33109.382
33108.731
33145.174
33148.618
33110.218
33134.547
33122.032
33128.346
33126.029
33123.34
33134.016
33111.065
33134.927
33109.532
33130.718
33114.554
33127.765
33118.389
33114.735
33132.411
33113.399
33113.365
33113.217
33113.336
33112.862
33112.235
33112.733
33112.186
33110.497
33108.257
33108.936
33106.725
33100.11
33096.228
33098.717
33095.124
33092.219
33088.103
33089.735
33086.547
33091.696
33089.227
33093.696
33091.291
33100.888
33098.908
33102.364
33100.558
33110.31
33109.958
33111.269
33111.335
33110.246
33114.086
33114.19
33106.103
33114.144
33104.78
33111.087
33086.173
33110.074
33085.304
33104.155
33091.766
33104.56
33093.866
33109.828
33113.254
33110.65
33112.293
33112.818
33114.005
33142.355
33107.693
33128.665
33150.97
33140.053
33149.533
33113.289
33112.911
33113.207
33112.888
33138.761
33148.084
33136.662
33116.784
33123.413
33144.108
33113.386
33112.853
33110.231
33107.905
33114.2
33112.243
33105.199
33102.06
33137.291
33123.425
33113.099
33137.551
33139.946
33135.914
33109.105
33099.443
33108.445
33098.703
33141.568
33135.844
33144.904
33128.204
33099.366
33136.743
33111.729
33104.619
33091.12
33087.936
33108.806
33099.906
33085.549
33083.811
33149.195
33128.876
33095.07
33139.524
33150.524
33141.179
33094.082
33084.878
33093.887
33085.24
33150.811
33141.97
33150.683
33123.5
33101.201
33143.405
33103.961
33098.329
33089.652
33089.075
33104.865
33103.071
33096.734
33096.466
33148.726
33117.42
33110.01
33145.217
33146.983
33146.516
33107.232
33104.659
33107.66
33105.627
33146.165
33147.378
33144.774
33107.219
33124.773
33149.358
33108.855
33110.383
33110.902
33111.858
33107.247
33119.776
33115.854
33108.589
33116.744
33106.035
33120.499
33084.131
33120.321
33083.371
33111.231
33094.187
33110.155
33096.209
33106.762
33119.028
33141.295
33150.607
33137.652
33146.262
33138.572
33136.522
33143.28
33136.222
33150.032
33140.443
33150.965
33142.744
33147.859
33145.918
33145.556
33148.376
33113.423