/*--------------------------------*- C++ -*----------------------------------*\
| =========                 |                                                 |
| \\      /  F ield         | OpenFOAM: The Open Source CFD Toolbox           |
|  \\    /   O peration     | Version:  2112                                  |
|   \\  /    A nd           | Website:  www.openfoam.com                      |
|    \\/     M anipulation  |                                                 |
\*---------------------------------------------------------------------------*/
FoamFile
{
    version     2.0;
    format      ascii;
    arch        "LSB;label=64;scalar=64";
    class       triSurfacePointScalarField;
    location    "constant/triSurface";
    object      PorousMedia.curvature;
}
// * * * * * * * * * * * * * * * * * * * * * * * * * * * * * * * * * * * * * //

dimensions      [0 1 0 0 0 0 0];

value           nonuniform List<scalar> 
9802
(
33559.418
33565.229
33563.909
33555.888
33564.14
33551.682
33563.943
33535.429
33561.574
33533.176
33555.676
33539.021
33555.657
33545.608
33558.328
33562.542
33563.308
33563.309
33563.189
33563.109
33554.607
33553.929
33552.271
33551.643
33534.588
33534.534
33535.654
33535.381
33555.198
33555.025
33557.309
33557.034
33570.733
33588.127
33567.856
33589.091
33572.35
33585.072
33576.706
33580.157
33580.833
33575.063
33586.138
33569.531
33588.287
33568.021
33589.033
33567.921
33587.469
33570.559
33584.958
33573.707
33581.493
33577.667
33574.989
33584.726
33560.127
33563.508
33562.758
33557.295
33563.731
33551.208
33561.521
33537.056
33558.617
33532.731
33553.852
33538.208
33554.625
33545.61
33558.152
33561.344
33561.844
33562.017
33561.942
33559.166
33561.995
33557.723
33549.797
33539.22
33548.92
33537.318
33548.626
33542.138
33550.014
33543.816
33561.212
33561.796
33563.016
33563.222
33568.019
33589.012
33568.177
33588.488
33570.489
33586.691
33571.446
33586.273
33563.239
33561.952
33560.559
33552.685
33581.986
33573.98
33582.422
33573.047
33584.775
33570.598
33585.571
33570.291
33556.092
33544.831
33545.461
33534.418
33589.027
33568.324
33588.857
33568.172
33588.059
33569.457
33588.106
33569.879
33544.852
33536.627
33555.221
33550.879
33580.394
33579.07
33579.712
33579.426
33576.698
33582.775
33576.257
33583.521
33559.396
33558.518
33567.97
33589.199
33573.159
33584.375
33580.169
33575.836
33586.645
33569.149
33588.956
33567.925
33587.207
33570.897
33582.023
33577.107
33574.365
33585.257
33570.115
33588.501
33576.226
33580.842
33577.268
33579.479
33588.149
33568.086
33588.417
33568
33585.407
33573.141
33584.458
33574.278
33571.327
33587.703
33596.157
33591.925
33556.847
33559.438
33563.914
33567.382
33568.678
33560.663
33567.201
33588.472
33562.64
33562.126
33562.454
33562.182
33570.183
33561.431
33565.74
33587.337
33565.023
33564.122
33554.616
33554.496
33583.074
33568.218
33542.274
33572.739
33559.244
33548.005
33558.413
33547.349
33584.586
33568.316
33539.905
33571.201
33568.057
33561.71
33534.686
33532.467
33588.937
33564.884
33532.699
33568.61
33545.662
33533.738
33545.392
33534.215
33588.494
33563.555
33534.378
33569.333
33558.663
33554.883
33542.329
33543.197
33579.289
33556.026
33555.852
33580.321
33556.846
33553.788
33557.243
33554.89
33577.474
33555.917
33559.374
33582.295
33562.943
33563.027
33562.14
33561.331
33560.543
33559.718
33546.005
33543.188
33542.052
33539.995
33544.749
33543.334
33548.685
33547.155
33561.961
33561.88
33568.76
33589.245
33574.465
33583.201
33579.252
33577.394
33587.446
33568.822
33589.007
33568.015
33586.729
33571.901
33583.161
33576.092
33573.324
33586.52
33569.671
33588.771
33575.561
33581.843
33578.277
33578.735
33587.889
33568.518
33588.865
33567.934
33585.862
33572.857
33584.11
33574.842
33571.996
33587.532
33562.63
33562.388
33562.548
33561.856
33560.994
33549.32
33558.346
33545.264
33548.222
33533.444
33547.183
33535.154
33556.145
33551.957
33558.156
33556.834
33562.215
33562.471
33561.647
33560.285
33560.778
33559.531
33545.71
33541.282
33543.678
33539.81
33546.056
33543.464
33547.886
33545.497
33561.865
33561.77
33560.352
33561.874
33563.106
33563.593
33560.534
33563.95
33569.322
33588.462
33569.962
33587.996
33562.545
33558.899
33562.805
33563.153
33559.907
33557.969
33564
33561.959
33553.937
33550.568
33564.25
33548.266
33583.796
33572.522
33584.433
33571.905
33563.397
33538.816
33561.811
33556.67
33540.679
33537.829
33558.493
33550.599
33534.676
33532.665
33558.909
33532.207
33589.045
33569.134
33588.966
33569.294
33555.415
33535.974
33553.947
33548.545
33538.013
33537.524
33554.714
33553.824
33547.476
33546.807
33555.562
33549.156
33578.896
33581.283
33578.305
33581.868
33557.479
33559.76
33558.198
33559.866
33559.974
33560.965
33569.192
33589.004
33574.94
33582.51
33578.729
33578.02
33587.631
33568.634
33588.931
33567.923
33586.294
33572.357
33583.641
33575.435
33572.66
33587.029
33568.246
33589.284
33563.94
33563.537
33563.688
33563.671
33572.044
33586.056
33581.839
33574.705
33557.201
33551.257
33556.264
33550.667
33586.048
33570.28
33589.405
33568.311
33538.305
33535.024
33538.431
33535.498
33588.005
33570.55
33581.187
33578.567
33557.343
33555.353
33557.761
33556.359
33575.807
33584.483
33563.228
33563.464
33563.007
33562.227
33558.886
33556.821
33550.228
33546.011
33539.498
33536.426
33541.378
33538.94
33552.28
33550.443
33560.326
33559.926
33562.879
33563.303
33563.424
33561.854
33561.499
33550.97
33558.749
33544.645
33548.549
33534.232
33547.317
33535.919
33556.006
33551.793
33559.01
33557.871
33561.734
33562.797
33563.293
33563.205
33563.3
33562.978
33561.154
33559.448
33562.076
33560.5
33557.341
33554.855
33556.259
33550.66
33542.806
33539.827
33551.028
33543.525
33536.973
33535.214
33548.957
33544.745
33540.076
33538.781
33553.347
33551.543
33547.922
33546.623
33560.244
33561.105
33560.724
33560.45
33558.762
33558.361
33559.876
33560.064
33562.422
33562.953
33563.84
33565.369
33558.463
33565.416
33559.924
33564.886
33559.833
33562.428
33563.19
33565.806
33561.357
33563.302
33562.319
33560.889
33563.179
33563.22
33560.766
33558.47
33563.762
33556.873
33563.744
33554.781
33564.839
33563.629
33563.562
33563.123
33555.737
33555.378
33553.326
33553.867
33564.449
33551.461
33563.881
33551.464
33565.279
33562.238
33553.233
33548.362
33564.348
33545.977
33563.945
33541.536
33565.529
33557.119
33541.987
33537.108
33563.274
33536.51
33564.785
33534.191
33564.519
33562.665
33559.15
33557.61
33535.536
33535.285
33533.477
33534.028
33563.68
33532.587
33559.821
33533.308
33562.269
33550.213
33534.436
33532.239
33557.676
33532.754
33556.024
33534.425
33557.573
33548.149
33537.727
33536.891
33554.878
33538.077
33556.649
33540.062
33556.207
33555.361
33553.538
33552.963
33541.89
33542.055
33541.671
33542.804
33555.896
33544.235
33555.3
33546.641
33555.888
33554.458
33548.564
33548.959
33556.216
33552.628
33557.195
33557.475
33557.297
33559.707
33559.874
33561.562
33558.489
33561.494
33557.719
33563.914
33555.905
33574.242
33567.386
33564.963
33569.044
33562.358
33575.349
33539.012
33575.62
33537.759
33566.552
33548.67
33565.245
33550.366
33555.225
33573.696
33568.611
33589.394
33573.995
33584.175
33580.195
33576.755
33587.219
33569.372
33589.375
33568.1
33587.098
33571.722
33582.813
33576.722
33573.94
33586.261
33559.073
33566.36
33560.276
33564.195
33559.519
33568.358
33562.891
33562.631
33562.82
33558.423
33563.875
33556.561
33565.692
33550.476
33564.478
33549.3
33567.644
33546.232
33568.515
33536.971
33563.252
33538.098
33565.96
33535.121
33564.831
33532.33
33559.614
33532.431
33566.45
33531.827
33561.744
33537.25
33555.277
33536.836
33557.738
33540.05
33556.332
33545.778
33555.175
33548.205
33556.558
33551.282
33556.199
33563.334
33557.792
33560.76
33557.502
33564.589
33560.02
33564.014
33563.822
33556.296
33563.972
33553.666
33561.299
33536.024
33559.766
33534.238
33554.163
33540.231
33554.534
33544.33
33559.429
33562.652
33557.164
33581.623
33570.345
33574.669
33573.739
33569.45
33581.591
33553.739
33581.706
33552.059
33576.515
33557.652
33572.92
33562.86
33559.227
33578.801
33563.509
33563.884
33563.352
33562.354
33559.764
33558.024
33549.918
33545.476
33540.63
33537.607
33542.574
33540.193
33551.791
33549.941
33561.167
33560.815
33562.717
33563.22
33562.944
33560.708
33561.322
33557.65
33550.818
33541.527
33545.783
33537.23
33546.542
33540.914
33551.458
33546.77
33561.453
33561.326
33556.347
33574.914
33567.313
33565.921
33569.54
33561.418
33575.642
33539.408
33575.403
33537.843
33567.214
33547.533
33564.501
33551.859
33555.33
33573.01
33560.406
33564.024
33558.852
33560.028
33565.368
33571.853
33561.003
33563.909
33562.202
33561.171
33563.002
33562.436
33560.157
33567.182
33563.007
33558.609
33563.188
33549.25
33569.56
33565.483
33546.311
33548.419
33565.056
33545.278
33564.894
33540.791
33571.77
33565.714
33538.365
33538.256
33562.941
33538.959
33557.216
33532.899
33570.058
33561.817
33532.024
33533.382
33559.321
33532.568
33557.458
33534.291
33566.29
33558.404
33535.303
33537.853
33554.138
33535.52
33555.499
33549.524
33557.794
33555.797
33551.008
33555.136
33555.97
33552.909
33556.839
33557.84
33555.463
33556.756
33559.972
33564.783
33557.847
33558.87
33556.779
33558.544
33567.587
33575.095
33582.149
33595.984
33580.23
33591.305
33566.787
33564.441
33556.812
33566.972
33570.077
33565.667
33550.674
33560.088
33585.15
33582.378
33590.826
33579.94
33575.485
33567.397
33534.409
33539.994
33575.269
33565.902
33532.477
33537.549
33595.558
33581.465
33595.607
33584.023
33567.777
33558.786
33539.885
33546.545
33563.827
33557.091
33546.542
33552.906
33591.479
33588.354
33587.309
33592.906
33555.546
33557.339
33564.901
33572.389
33607.132
33609.571
33596.269
33598.65
33593.26
33594.098
33601.505
33598.555
33604.899
33601.751
33609.506
33607.403
33608.984
33607.557
33607.48
33609.082
33604.921
33607.913
33601.866
33604.785
33594.522
33593.267
33597.206
33594.943
33607.819
33604.839
33609.081
33606.304
33607.981
33607.567
33607.582
33607.902
33607.043
33609.583
33597.127
33599.666
33593.29
33593.77
33601.032
33598.153
33605.528
33602.365
33609.597
33607.405
33608.922
33607.608
33607.54
33608.996
33605.387
33608.308
33601.081
33603.997
33594.094
33593.045
33597.748
33595.391
33607.477
33604.418
33609.193
33606.526
33608.11
33607.517
33607.512
33608.036
33607.319
33609.619
33595.584
33597.821
33593.601
33594.706
33602.18
33599.228
33604.497
33601.306
33609.497
33607.53
33609.166
33607.591
33607.503
33609.303
33607.605
33609.683
33557.744
33568.158
33562.91
33563.728
33563.093
33563.72
33563.591
33561.46
33563.67
33560.944
33564.597
33556.843
33594.56
33596.292
33565.799
33552.092
33562.16
33556.471
33561.335
33556.093
33553.602
33542.964
33554.121
33541.734
33568.392
33533.587
33603.562
33600.472
33567.576
33532.173
33548.317
33536.401
33545.9
33536.102
33545.942
33539.158
33547.614
33539.944
33559.531
33541.26
33609.512
33607.734
33558.019
33545.605
33553.114
33547.616
33553.347
33548.732
33561.028
33560.585
33561.288
33561.244
33556.72
33566.388
33562.333
33562.424
33563.95
33564.087
33564.139
33563.779
33561.633
33560.265
33555.795
33552.837
33555.234
33551.818
33545.187
33540.974
33535.171
33535.505
33536.147
33535.525
33547.052
33544.644
33556.967
33556.158
33557.832
33556.664
33607.502
33609.719
33595.093
33597.059
33594.061
33595.526
33602.977
33599.896
33604.081
33600.986
33609.557
33607.667
33609.37
33607.706
33607.602
33609.534
33562.225
33562.734
33606.904
33609.544
33606.619
33609.372
33603.988
33606.982
33603.363
33606.366
33598.831
33601.561
33598.011
33600.673
33562.801
33559.64
33562.279
33557.16
33593.431
33593.55
33593.5
33593.328
33595.77
33593.998
33596.259
33594.391
33599.884
33597.162
33600.526
33597.744
33552.306
33539.737
33549.515
33536.804
33606.115
33602.941
33606.517
33603.388
33608.61
33605.666
33608.833
33605.981
33609.642
33607.227
33609.67
33607.382
33548.679
33541.313
33551.527
33544.954
33608.845
33607.664
33608.675
33607.659
33607.9
33607.767
33607.813
33607.843
33607.608
33608.684
33607.605
33608.892
33561.198
33561.733
33559.313
33565.882
33582.557
33563.06
33563.586
33596.042
33563.979
33564.014
33604.58
33607.614
33602.764
33605.71
33563.884
33563.12
33580.283
33563.371
33561.791
33590.731
33563.984
33556.257
33565.19
33551.078
33584.771
33560.296
33555.598
33582.811
33560.343
33554.409
33595.319
33593.812
33596.938
33594.837
33554.772
33546.854
33591.271
33553.189
33544.194
33580.036
33565.08
33535.411
33563.432
33532.782
33595.494
33543.51
33535.731
33581.229
33542.595
33535.419
33608.373
33605.434
33609.129
33606.283
33542.595
33537.593
33595.404
33544.038
33538.319
33584.369
33556.638
33539.739
33555.806
33545.755
33591.918
33553.458
33549.708
33587.957
33555.181
33551.988
33608.021
33607.777
33607.804
33607.96
33560.055
33559.397
33586.891
33560.456
33559.842
33593.421
33557.883
33563.836
33557.313
33571.308
33606.36
33609.22
33606.002
33608.916
33600.532
33603.382
33599.732
33602.514
33565.938
33561.26
33567.787
33556.204
33593.817
33593.331
33594.098
33593.327
33598.747
33596.232
33599.369
33596.747
33571.904
33534.813
33571.593
33533.374
33607.02
33603.924
33607.406
33604.336
33609.581
33606.968
33609.671
33607.139
33562.944
33543.81
33560.797
33548.055
33608.57
33607.726
33608.428
33607.72
33607.695
33608.391
33607.687
33608.558
33556.222
33569.658
33561.557
33563.451
33560.463
33564.447
33563.411
33563.748
33562.593
33563.361
33562.679
33585.078
33567.777
33582.666
33563.375
33561.178
33563.668
33561.958
33563.276
33558.219
33563.613
33558.639
33563.271
33554.744
33564.976
33550.438
33561.882
33554.842
33561.935
33552.6
33579.639
33568.594
33582.549
33563.934
33557.724
33542.85
33555.225
33543.715
33563.121
33537.776
33558.101
33538.514
33554.73
33535.112
33560.397
33532.832
33547.08
33535.449
33549.573
33534.386
33585.034
33559.613
33583.389
33561.631
33547.828
33537.071
33546.214
33538.601
33555.143
33538.062
33551.392
33539.827
33553.859
33545.569
33555.142
33547.353
33554.438
33549.481
33555.1
33549.75
33574.243
33573.199
33569.387
33578.834
33559.569
33559.238
33560.584
33560.43
33558.303
33561.941
33560.288
33561.593
33608.333
33583.498
33596.247
33609.22
33597.378
33580.946
33589.502
33598.311
33592.882
33583.751
33584.122
33592.757
33600.835
33592.484
33580.168
33599.726
33604.966
33595.194
33581.097
33603.803
33609.298
33595.144
33585.125
33608.527
33609.025
33592.918
33587.41
33608.551
33608.474
33586.219
33594.43
33608.951
33608.17
33609.135
33598.449
33599.372
33593.155
33592.892
33600.385
33599.277
33605.483
33604.356
33609.32
33608.474
33608.952
33608.56
33608.475
33608.849
33608.777
33609.497
33607.674
33608.679
33606.373
33607.388
33605.302
33606.316
33604.6
33605.682
33603.028
33604.081
33600.44
33601.424
33594.019
33594.624
33593.792
33593.305
33594.947
33594.223
33596.054
33595.245
33596.592
33595.698
33597.516
33596.567
33599.303
33598.244
33603.25
33602.092
33606.359
33605.245
33607.356
33606.256
33608.057
33606.992
33608.29
33607.293
33608.627
33607.676
33609.178
33608.281
33609.441
33608.812
33608.796
33608.476
33608.481
33608.266
33608.419
33608.291
33608.339
33608.336
33608.243
33608.338
33608.391
33608.647
33608.67
33609.477
33595.539
33596.372
33593.141
33593.377
33602.137
33600.997
33604.205
33603.039
33609.443
33608.749
33609.287
33608.726
33608.682
33609.297
33608.602
33609.447
33596.506
33597.406
33593.066
33593.102
33601.617
33600.496
33604.716
33603.543
33609.458
33608.733
33609.233
33608.706
33608.649
33609.209
33563.815
33563.616
33562.694
33562.779
33559.869
33559.19
33546.906
33546.435
33540.073
33539.018
33542.594
33542.154
33550.329
33549.813
33561.525
33561.67
33608.717
33609.47
33594.664
33595.414
33593.431
33593.859
33602.648
33601.502
33603.689
33602.521
33609.415
33608.765
33609.348
33608.74
33608.705
33609.384
33608.016
33608.98
33605.909
33606.916
33603.869
33604.952
33599.493
33600.475
33593.557
33593.151
33595.563
33594.79
33597.118
33596.199
33599.938
33598.873
33606.033
33604.885
33607.78
33606.685
33608.515
33607.552
33609.311
33608.465
33608.933
33608.552
33608.48
33608.297
33608.309
33608.366
33608.466
33608.809
33606.986
33607.998
33602.313
33603.361
33594.759
33594.104
33598.336
33597.346
33607.229
33606.118
33608.987
33608.059
33608.685
33608.425
33608.376
33608.537
33607.436
33608.471
33601.487
33602.487
33594.43
33593.842
33598.98
33597.959
33606.937
33605.834
33609.211
33608.28
33608.804
33608.534
33608.467
33608.658
33556.791
33577.739
33567.085
33570.94
33571.837
33562.571
33577.696
33545.477
33577.673
33542.294
33571.6
33549.25
33566.38
33557.293
33555.891
33574.056
33563.526
33563.575
33563.404
33563.739
33563.272
33562.664
33563
33562.657
33558.75
33557.379
33557.898
33556.847
33550.41
33547.65
33549.424
33547.049
33538.826
33536.908
33537.644
33536.434
33539.815
33538.471
33540.806
33539.447
33552.031
33550.899
33552.756
33551.832
33559.982
33559.56
33560.382
33560.242
33561.44
33562.843
33563.351
33557.949
33563.315
33556.596
33555.708
33537.672
33554.608
33536.361
33551.455
33541.771
33552.397
33543.582
33560.951
33562.362
33563.524
33563.957
33581.238
33563.228
33563.222
33595.252
33580.895
33594.76
33580.701
33594.317
33580.656
33563.371
33562.753
33593.941
33563.886
33562.561
33560.377
33553.886
33587.53
33558.503
33550.779
33581.22
33587.91
33580.84
33588.435
33580.628
33589.104
33557.054
33548.03
33580.587
33555.653
33545.809
33543.857
33535.251
33596.22
33542.276
33534.527
33582.578
33596.133
33582.7
33596.138
33582.931
33596.212
33542.2
33535.175
33583.282
33543.743
33537.14
33555.3
33551.758
33590.158
33556.734
33553.916
33590.123
33589.688
33590.444
33589.32
33590.862
33589.009
33558.213
33556.339
33591.4
33560.034
33558.966
33584.75
33562.675
33555.679
33574.226
33584.306
33595.562
33561.777
33563.41
33557.355
33557.789
33558.98
33561.337
33563.676
33568.917
33575.696
33577.828
33561.794
33563.782
33562.263
33563.122
33560.274
33559.374
33559.8
33561.422
33563.384
33568.379
33579.301
33582.214
33581.842
33560.498
33562.591
33562.598
33562.468
33563.48
33565.402
33595.87
33563.413
33559.934
33575.162
33585.028
33561.315
33561.168
33561.677
33561.828
33562.673
33563.496
33563.835
33565.626
33563.073
33561.006
33561.305
33561.337
33563.577
33567.224
33574.435
33581.245
33563.84
33561.618
33561.738
33561.279
33563.531
33566.503
33573.996
33580.89
33562.381
33561.422
33562.142
33562.58
33561.184
33562.368
33562.859
33563.771
33567.294
33562.895
33572.787
33583.199
33580.518
33562.483
33563.468
33562.558
33561.675
33561.491
33561.023
33592.886
33566.965
33565.43
33562.75
33562.938
33559.915
33563.558
33575.67
33578.849
33563.129
33560.751
33563.69
33559.843
33566.314
33565.911
33564.167
33563.469
33559.001
33560.53
33568.972
33571.971
33563.525
33559.372
33581.992
33574.386
33568.528
33563.869
33576.376
33586.538
33562.745
33554.513
33572.555
33571.025
33567.086
33563.065
33552.52
33548.976
33557.837
33561.368
33562.604
33552.478
33562.344
33551.822
33577.037
33574.851
33567.866
33563.154
33549.089
33545.454
33560.183
33564.82
33586.49
33565.651
33562.52
33560.593
33550.661
33549.983
33545.64
33581.888
33580.121
33572.898
33551.512
33567.98
33566.963
33566.171
33565.607
33562.784
33546.479
33544.6
33543.387
33543.847
33578.788
33573.693
33568.546
33566.219
33542.586
33542.032
33549.103
33561.063
33579.179
33573.998
33568.822
33565.692
33541.986
33541.043
33547.976
33560.228
33567.189
33565.431
33564.959
33562.734
33543.499
33542.108
33541.196
33540.995
33582.373
33574.597
33545.712
33564.53
33590.191
33566.108
33560.814
33556.878
33544.841
33543.577
33539.374
33580.378
33580.671
33578.229
33568.711
33561.989
33540.899
33537.693
33551.266
33557.183
33558.481
33542.152
33559.765
33540.543
33577.484
33575.592
33568.903
33560.05
33539.193
33535.66
33541.349
33546.322
33557.381
33539.612
33593.898
33585.183
33575.713
33538.603
33560.379
33580.399
33552.781
33535.042
33577.664
33574.998
33567.037
33555.053
33534.04
33532.37
33537.616
33542.115
33553.06
33534.335
33551.245
33533.921
33581.693
33578.445
33566.141
33555.326
33533.111
33532.196
33545.3
33552.048
33596.134
33561.361
33551.876
33546.77
33533.497
33534.072
33532.43
33582.157
33584.908
33573.59
33538.273
33559.902
33562.111
33560.637
33559.157
33554.197
33533.452
33532.949
33532.259
33533.317
33580.765
33572.905
33564.472
33560.403
33532.732
33533.777
33538.994
33552.736
33580.448
33572.487
33564.142
33559.854
33533.529
33534.114
33539.495
33553.082
33560.877
33559.32
33557.865
33553.403
33534.004
33534.329
33534.035
33534.328
33583.777
33571.594
33540.559
33561.258
33596.078
33558.752
33550.355
33545.797
33535.613
33535.82
33534.842
33583.832
33579.088
33575.377
33562.222
33552.968
33535.514
33536.499
33548.716
33554.912
33549.132
33536.829
33550.498
33537.191
33572.179
33569.099
33560.931
33551.768
33537.81
33538.864
33544.645
33548.564
33550.056
33538.944
33594.054
33579.85
33565.955
33549.762
33566.727
33586.107
33553.805
33546.664
33565.686
33562.796
33557.186
33554.889
33547.5
33549.526
33555.473
33558.307
33555.082
33548.817
33555.139
33549.411
33569.777
33565.498
33556.368
33555.893
33550.413
33552.689
33563.544
33567.689
33591.019
33555.983
33556.417
33555.502
33551.041
33551.897
33552.452
33589.324
33573.619
33559.554
33561.129
33574.13
33556.194
33555.822
33556.213
33556.62
33553.538
33554.03
33553.882
33555.388
33566.828
33558.227
33556.112
33555.92
33555.157
33557.604
33563.298
33571.339
33566.07
33557.738
33556.078
33556.2
33556.702
33558.528
33564.389
33572.272
33556.638
33556.369
33556.98
33557.383
33555.933
33557.47
33557.706
33558.343
33570.105
33556.842
33566.349
33578.09
33588.224
33556.621
33558.78
33558.528
33557.473
33558.025
33559.198
33592.347
33563.091
33559.063
33556.128
33558.162
33558.402
33562.471
33572.348
33575.756
33559.282
33559.181
33559.507
33559.636
33556.226
33555.665
33556.78
33559.386
33560.376
33564.827
33570.966
33573.49
33560.286
33560.854
33563.506
33563.449
33562.7
33562.025
33561.03
33558.977
33547.731
33544.058
33542.823
33538.621
33544.77
33542.264
33550.25
33548.06
33561.876
33561.964
33584.424
33595.844
33581.671
33587.327
33582.543
33585.915
33593.587
33580.4
33594.349
33580.577
33594.406
33585.873
33593.786
33586.469
33585.174
33595.371
33563.183
33563.303
33562.679
33561.415
33561.761
33559.257
33548.002
33542.609
33544.969
33538.981
33546.305
33542.811
33549.7
33546.718
33562.155
33562.318
33563.482
33563.577
33562.456
33562.125
33560.792
33560.598
33545.522
33544.501
33541.701
33541.128
33544.655
33544.207
33548.559
33548.101
33562.496
33562.434
33562.92
33562.716
33562.226
33560.867
33561.795
33558.299
33548.413
33541.673
33545.847
33537.856
33546.81
33542.319
33550.17
33545.898
33561.635
33562.048
33562.321
33563.33
33572.173
33591.022
33573.763
33588.245
33563.637
33559.236
33563.22
33558.145
33583.265
33576.495
33586.921
33573.523
33553.455
33539.02
33551.939
33537.808
33591.188
33572.732
33590.556
33574.306
33550.321
33542.524
33551.644
33544.531
33583.789
33582.19
33580.082
33586.177
33561.962
33562.63
33557.581
33567.697
33564.708
33556.389
33566.176
33553.178
33568.13
33533.629
33568.423
33532.191
33559.132
33542.957
33558.235
33544.269
33556.793
33567.66
33556.432
33576.039
33563.328
33563.429
33562.909
33561.877
33567.942
33567.526
33570.268
33563.095
33560.638
33557.851
33549.53
33543.958
33576.743
33541.783
33576.676
33540.115
33542.693
33537.384
33544.201
33540.794
33568.818
33549.262
33566.132
33553.407
33551.39
33548.431
33561.295
33561.253
33555.746
33574.221
33560.562
33563.969
33577.511
33593.392
33563.564
33563.589
33563.531
33562.836
33577.181
33588.431
33563.514
33557.452
33564.659
33552.721
33583.053
33580.268
33559.218
33553.204
33555.198
33547.151
33589.427
33576.32
33561.478
33537.172
33559.795
33533.707
33593.138
33576.533
33541.426
33534.848
33541.718
33536.535
33592.394
33579.668
33554.056
33539.932
33554.559
33545.189
33588.416
33583.979
33555.614
33552.482
33559.207
33558.229
33582.479
33590.439
33559.06
33562.847
33562.577
33562.319
33561.714
33560.46
33561.603
33559.039
33546.571
33541.181
33545.335
33539.024
33546.743
33543.363
33548.596
33545.031
33561.756
33562.162
33561.205
33562.868
33573.208
33591.376
33558.572
33562.557
33563.553
33572.946
33559.766
33567.356
33558.975
33575.27
33560.973
33563.528
33563.836
33582.027
33561.699
33582.011
33563.602
33563.252
33562.494
33562.668
33563.033
33561.96
33563.488
33563.019
33565.424
33580.068
33566.144
33563.878
33562.691
33579.51
33563.636
33571.564
33563.03
33561.311
33564.317
33563.557
33560.967
33567.005
33575.598
33585.918
33563.05
33558.454
33562.41
33554.799
33581.277
33578.848
33570.095
33561.615
33554.137
33552.501
33566.881
33546.596
33572.333
33553.711
33577.571
33560.634
33552.496
33563.809
33578.018
33563.051
33559.636
33550.334
33559.698
33548.081
33560.101
33546.678
33557.881
33547.883
33580.096
33558.718
33580.285
33557.185
33546.214
33557.959
33574.681
33543.924
33567.535
33537.229
33572.834
33556.277
33542.413
33538.418
33588.555
33572.775
33556.646
33538.421
33553.049
33534.998
33591.136
33572.271
33572.093
33548.402
33535.044
33534.005
33564.963
33532.036
33574.33
33537.361
33581.568
33545.09
33534.949
33552.098
33581.377
33552.439
33544.153
33534.552
33547.309
33534.282
33547.293
33534.029
33543.929
33535.5
33579.987
33553.988
33579.449
33544.406
33536.521
33554.452
33570.582
33542.175
33560.471
33536.827
33566.456
33547.088
33537.746
33541.059
33589.658
33575.779
33550.322
33539.35
33553.14
33545.196
33585.826
33580.106
33559.67
33554.29
33549.083
33553.667
33556.366
33550.849
33560.706
33558.476
33569.081
33556.052
33552.471
33568.567
33568.432
33569.678
33557.169
33553.899
33557.062
33554.403
33557.47
33554.745
33558.495
33556.654
33564.696
33574.149
33563.868
33559.527
33558.297
33574.993
33556.267
33568.468
33556.746
33562.422
33555.68
33560.21
33559.7
33567.949
33578.026
33588.491
33560.058
33560.891
33583.854
33596.198
33583.231
33596.513
33580.988
33590.355
33581.249
33588.836
33583.413
33584.741
33584.475
33583.826
33592.292
33580.321
33592.949
33580.299
33595.005
33580.969
33595.593
33581.521
33595.591
33584.965
33594.924
33585.424
33593.264
33587.103
33592.624
33587.982
33586.798
33594.162
33585.862
33594.831
33584.213
33596.195
33581.609
33588.195
33583.125
33585.468
33593.44
33580.472
33594.82
33580.926
33594.809
33585.74
33593.607
33586.922
33585.643
33595.222
33556.006
33577.188
33573.924
33591.257
33576.723
33584.461
33569.454
33568.162
33570.334
33566.235
33580.097
33580.251
33589.333
33572.42
33578.262
33543.932
33578.042
33543.356
33590.789
33572.231
33589.113
33576.467
33569.937
33552.197
33568.573
33554.458
33586.66
33579.188
33577.028
33589.36
33555.848
33576.047
33582.229
33596.248
33580.694
33592.365
33586.066
33582.448
33590.879
33580.402
33596.117
33582.116
33596.117
33584.172
33591.473
33589.087
33587.954
33592.877
33561.481
33563.553
33563.833
33558.23
33563.53
33555.751
33557.682
33537.984
33555.479
33535.82
33551.771
33540.869
33553.485
33544.829
33560.735
33562.22
33563.274
33563.491
33563.6
33563.58
33561.313
33585.606
33581.538
33572.113
33590.687
33595.623
33572.326
33590.484
33572.907
33589.351
33580.596
33573.232
33588.735
33593.453
33569.695
33581.625
33563.237
33562.276
33563.113
33561.527
33561.666
33558.333
33561.013
33556.805
33578.753
33570.542
33587.057
33583.811
33575.865
33581.57
33584.496
33575.446
33585.879
33574.293
33589.693
33586.331
33573.808
33580.498
33583.642
33563.001
33551.335
33544.617
33550.159
33542.779
33545.145
33537.966
33543.569
33536.468
33585.39
33559.761
33596.211
33591.128
33572.797
33582.397
33591.205
33573.076
33590.889
33573.814
33596.193
33590.639
33573.964
33583.569
33582.959
33562.655
33544.143
33539.808
33545.802
33541.597
33551.076
33547.263
33552.597
33549.129
33575.695
33571.919
33590.588
33583.202
33582.656
33589.749
33582.764
33583.324
33581.243
33585.086
33588.646
33580.571
33585.549
33591.885
33568.02
33580.421
33561.001
33560.99
33561.693
33561.894
33561.071
33584.913
33573.342
33577.672
33575.262
33574.659
33584.877
33560.586
33585.049
33559.952
33580.607
33565.125
33578.605
33568.014
33563.92
33583.098
33564.002
33564.271
33563.568
33563.51
33563.542
33563.211
33564.01
33563.26
33558.984
33555.597
33556.748
33552.552
33554.856
33549.962
33553.19
33547.832
33539.339
33535.908
33536.813
33534.788
33537.595
33535.487
33540.741
33537.767
33554.685
33552.682
33556.242
33554.551
33557.986
33556.858
33560.179
33559.413
33574.415
33591.046
33577.247
33583.79
33579.574
33580.914
33589.62
33572.357
33590.652
33572.177
33588.741
33576.91
33587.136
33578.682
33576.472
33589.819
33557.766
33582.978
33571.707
33575.79
33574.086
33572.419
33583.141
33556.932
33583.414
33555.919
33578.217
33561.704
33576.036
33564.802
33560.644
33581.231
33560.346
33585.145
33558.844
33560.616
33565.299
33570.847
33560.548
33566.026
33562.699
33563.449
33559.548
33559.691
33560.011
33560.807
33561.94
33563.411
33564.874
33568.607
33570.508
33576.517
33560.768
33561.308
33561.922
33563.452
33565.071
33567.958
33564.229
33560.567
33562.164
33563.146
33563.041
33562.939
33574.895
33585.081
33560.839
33570.686
33561.444
33570.017
33566.905
33562.318
33562.595
33563.262
33562.48
33561.686
33573.587
33583.854
33562.188
33562.42
33562.887
33561.244
33562.337
33565.432
33563.632
33562.691
33562.797
33562.829
33562.844
33561.089
33560.448
33564.121
33566.843
33573.506
33563.473
33561.441
33563.344
33560.124
33563.822
33563.504
33558.762
33564.227
33572.511
33578.789
33576.363
33573.793
33568.679
33565.184
33549.376
33549.487
33566.208
33547.863
33562.323
33551.341
33573.461
33569.386
33567.745
33564.983
33564.723
33547.799
33546.525
33544.887
33545.77
33554.67
33568.528
33566.304
33564.091
33547.045
33544.953
33543.622
33580.715
33573.486
33563.948
33562.44
33548.202
33545.978
33550.354
33567.553
33570.85
33543.627
33571.272
33542.315
33582.328
33574.375
33563.601
33561.245
33545.681
33543.393
33546.989
33565.324
33568.78
33566.187
33563.56
33542.498
33540.756
33539.538
33575.726
33570.722
33569.165
33565.417
33562.995
33541.839
33539.99
33538.236
33538.534
33547.025
33559.296
33543.326
33565.973
33538.408
33570.854
33564.629
33538.123
33536.503
33584.635
33561.27
33585.459
33559.795